

        *** GPGPU-Sim Simulator Version 4.0.0  [build gpgpu-sim_git-commit-90ec3399763d7c8512cfe7dc193473086c38ca38_modified_14.0] ***


addr_dec_mask[CHIP]  = 0000000000001f00 	high:13 low:8
addr_dec_mask[BK]    = 00000000000e2000 	high:20 low:13
addr_dec_mask[ROW]   = 00000001fff00000 	high:33 low:20
addr_dec_mask[COL]   = 000000000001c0ff 	high:17 low:0
addr_dec_mask[BURST] = 000000000000001f 	high:5 low:0
sub_partition_id_mask = 0000000000002000
GPGPU-Sim uArch: clock freqs: 1132000000.000000:1132000000.000000:1132000000.000000:850000000.000000
GPGPU-Sim uArch: clock periods: 0.00000000088339222615:0.00000000088339222615:0.00000000088339222615:0.00000000117647058824
GPGPU-Sim uArch: performance model initialization complete.
launching memcpy command : MemcpyHtoD,0x00007f82eb3dca00,80
launching memcpy command : MemcpyHtoD,0x00007f82eb3dcc00,80
launching memcpy command : MemcpyHtoD,0x00007f82eb3e1200,124
launching memcpy command : MemcpyHtoD,0x00007f82eb3e1400,124
launching memcpy command : MemcpyHtoD,0x00007f8317a00810,520
launching memcpy command : MemcpyHtoD,0x00007f8317a00a18,8160
launching memcpy command : MemcpyHtoD,0x00007f82eb200000,1952256
launching memcpy command : MemcpyHtoD,0x00007f8317a00800,16
-kernel name = _Z6kernelv
-kernel id = 1
-grid dim = (51,1,1)
-block dim = (512,1,1)
-shmem = 11872
-nregs = 43
-binary version = 70
-cuda stream id = 0
-shmem base_addr = 0x00007f833d000000
-local mem base_addr = 0x00007f833f000000
-nvbit version = 1.4
-accelsim tracer version = 3
launching kernel command : /scratch/santosh/gpu_simulation/accel-sim-framework/traces/rodinia_2.0-ft/11.0/heartwall-rodinia-2.0-ft/__data_test_avi_1___data_result_1_txt/traces/kernel-1.traceg
GPGPU-Sim uArch: Shader 0 bind to kernel 1 '_Z6kernelv'
GPGPU-Sim uArch: CTA/core = 8, limited by: shmem
GPGPU-Sim: Reconfigure L1 cache to 112KB
GPGPUsim: cta_size: 32
ctaid: 0, start warp: 0, end_warp: 1, start_thread: 0, end_thread: 32
thread block = 0,0,0
warp id: 0
warp id: 1
warp_id: 0, insts: 359
1,1,1,0,0,5011,.IMAD.MOV.U32,5001,5002,4,2,1,0,0,0,6,0,3,0,-1,2,32,0,0,-1,0,-1,-1,-1,0 
1,1,3,0,0,5012,.S2R,5003,5004,4,0,1,0,0,0,1,0,3,0,-1,2,32,0,0,-1,0x20,-1,-1,-1,0 
1,1,2,0,0,5013,.SHFL.IDX,5001,5003,4,4,0,0,0,0,1,0,3,0,-1,2,0,0,0,-1,0x10,-1,-1,-1,0 
1,1,4,0,0,5014,.ISETP.NE.AND,5003,5005,4,1,0,0,0,0,6,0,3,0,-1,2,32,0,0,-1,0x30,-1,-1,-1,0 
1,1,5,0,0,5015,.IMAD.MOV.U32,5005,5006,4,2,1,0,0,0,6,0,3,0,-1,2,32,0,0,-1,0x40,-1,-1,-1,0 
1,1,6,0,0,5015,.S2R,5005,5007,4,0,1,0,0,0,1,0,3,0,-1,2,32,0,0,-1,0x50,-1,-1,-1,0 
1,1,7,0,0,5024,.IMAD,5007,5015,4,2,1,0,0,0,6,0,3,0,-1,2,32,0,0,-1,0x60,-1,-1,-1,0 
1,1,8,0,0,5024,.BRA,5007,5016,4,0,0,0,0,0,100,0,7,0,-1,4,0,0,0,-1,0x70,-1,-1,-1,0 
1,1,9,0,0,5026,.ISETP.NE.AND,5016,5017,4,2,0,0,0,0,6,0,3,0,-1,2,32,0,0,-1,0x80,-1,-1,-1,0 
1,1,10,0,0,5026,.LDC,5016,5018,4,0,1,0,0,0,1,0,3,0,-1,2,1,0,0,-1,0x90,-1,-1,-1,0 
1,1,11,0,0,5027,.LDC.64,5018,5019,4,0,1,0,0,0,1,0,3,0,-1,2,1,0,0,-1,0xa0,-1,-1,-1,0 
1,1,12,0,0,5036,.IMAD.WIDE,5018,5027,4,2,1,0,0,0,6,0,3,0,-1,2,1,0,0,-1,0xb0,-1,-1,-1,0 
1,1,14,0,0,5045,.LDC.64,5027,5037,4,0,1,0,0,0,1,0,3,0,-1,2,1,0,0,-1,0xd0,-1,-1,-1,0 
1,1,15,0,0,5047,.IMAD,5037,5038,4,2,1,0,0,0,6,0,3,0,-1,2,1,0,0,-1,0xe0,-1,-1,-1,0 
1,1,16,0,0,5047,.LDC.64,5037,5039,4,0,1,0,0,0,1,0,3,0,-1,2,1,0,0,-1,0xf0,-1,-1,-1,0 
1,1,17,0,0,5056,.IMAD.WIDE,5039,5047,4,2,1,0,0,0,6,0,3,0,-1,2,1,0,0,-1,0x100,-1,-1,-1,0 
1,1,18,0,0,5057,.IMAD.WIDE,5039,5048,4,2,1,0,0,0,6,0,3,0,-1,2,1,0,0,-1,0x110,-1,-1,-1,0 
1,1,13,0,0,5228,.LDG.E.SYS,5027,5036,1,1,1,1,0,4,8,0,6,0,-1,1,1,0,0,-1,0xc0,-1,-1,-1,1 
1,1,19,0,0,5231,.STG.E.SYS,5048,5228,1,2,0,0,1,4,11,0,6,0,-1,1,1,0,0,-1,0x120,-1,-1,-1,1 
1,1,21,0,0,5238,.LDC.64,5229,5230,4,0,1,0,0,0,1,0,3,0,-1,2,1,0,0,-1,0x140,-1,-1,-1,0 
1,1,22,0,0,5240,.IMAD.MOV.U32,5229,5231,4,3,1,0,0,0,6,0,3,0,-1,2,32,0,0,-1,0x150,-1,-1,-1,0 
1,1,23,0,0,5240,.BMOV.32.CLEAR,5231,5232,4,0,1,0,0,0,100,0,7,0,-1,4,32,0,0,-1,0x160,-1,-1,-1,0 
1,1,24,0,0,5241,.BSSY,5231,5233,4,0,0,0,0,0,100,0,7,0,-1,4,32,0,0,-1,0x170,-1,-1,-1,0 
1,1,26,0,0,5249,.LDC,5233,5241,4,0,1,0,0,0,1,0,3,0,-1,2,32,0,0,-1,0x190,-1,-1,-1,0 
1,1,25,0,0,5250,.IMAD.MOV.U32,5233,5240,4,3,1,0,0,0,6,0,3,0,-1,2,1,0,0,-1,0x180,-1,-1,-1,0 
1,1,27,0,0,5250,.LDC.64,5241,5242,4,0,1,0,0,0,1,0,3,0,-1,2,32,0,0,-1,0x1a0,-1,-1,-1,0 
1,1,28,0,0,5252,.IMAD.WIDE,5241,5243,4,2,1,0,0,0,6,0,3,0,-1,2,1,0,0,-1,0x1b0,-1,-1,-1,0 
1,1,29,0,0,5259,.IMAD.WIDE,5243,5250,4,2,1,0,0,0,6,0,3,0,-1,2,32,0,0,-1,0x1c0,-1,-1,-1,0 
1,1,20,0,0,5421,.LDG.E.SYS,5048,5229,1,1,1,1,0,4,8,0,6,0,-1,1,1,0,0,-1,0x130,-1,-1,-1,1 
1,1,30,0,0,5424,.STG.E.SYS,5243,5421,1,2,0,0,1,4,11,0,6,0,-1,1,1,0,0,-1,0x1d0,-1,-1,-1,1 
1,1,31,0,0,5431,.ISETP.GE.AND,5421,5422,4,1,0,0,0,0,6,0,3,0,-1,2,32,0,0,-1,0x1e0,-1,-1,-1,0 
1,1,32,0,0,5431,.BRA,5421,5423,4,0,0,0,0,0,100,0,7,0,-1,4,0,0,0,-1,0x1f0,-1,-1,-1,0 
1,1,33,0,0,5433,.IADD3,5423,5424,4,2,1,0,0,0,6,0,3,0,-1,2,32,0,0,-1,0x200,-1,-1,-1,0 
1,1,34,0,0,5433,.LDC,5423,5425,4,0,1,0,0,0,1,0,3,0,-1,2,32,0,0,-1,0x210,-1,-1,-1,0 
1,1,35,0,0,5434,.BMOV.32.CLEAR,5425,5426,4,0,1,0,0,0,100,0,7,0,-1,4,32,0,0,-1,0x220,-1,-1,-1,0 
1,1,36,0,0,5435,.BSSY,5425,5427,4,0,0,0,0,0,100,0,7,0,-1,4,32,0,0,-1,0x230,-1,-1,-1,0 
1,1,37,0,0,5442,.ISETP.LT.AND,5427,5433,4,1,0,0,0,0,6,0,3,0,-1,2,32,0,0,-1,0x240,-1,-1,-1,0 
1,1,38,0,0,5443,.SHF.R.S32.HI,5427,5434,4,2,1,0,0,0,6,0,3,0,-1,2,32,0,0,-1,0x250,-1,-1,-1,0 
1,1,39,0,0,5444,.SEL,5434,5435,4,1,1,0,0,0,1,0,3,0,-1,2,32,0,0,-1,0x260,-1,-1,-1,0 
1,1,40,0,0,5444,.LDC.64,5434,5436,4,0,1,0,0,0,1,0,3,0,-1,2,32,0,0,-1,0x270,-1,-1,-1,0 
1,1,41,0,0,5453,.IADD3,5436,5444,4,2,1,0,0,0,6,0,3,0,-1,2,32,0,0,-1,0x280,-1,-1,-1,0 
1,1,42,0,0,5462,.LEA.HI,5436,5453,4,2,1,0,0,0,6,0,3,0,-1,2,32,0,0,-1,0x290,-1,-1,-1,0 
1,1,43,0,0,5462,.LDC.64,5453,5454,4,0,1,0,0,0,1,0,3,0,-1,2,32,0,0,-1,0x2a0,-1,-1,-1,0 
1,1,44,0,0,5471,.LOP3.LUT,5453,5462,4,2,1,0,0,0,6,0,3,0,-1,2,32,0,0,-1,0x2b0,-1,-1,-1,0 
1,1,45,0,0,5480,.ISETP.NE.AND,5462,5471,4,2,0,0,0,0,6,0,3,0,-1,2,32,0,0,-1,0x2c0,-1,-1,-1,0 
1,1,46,0,0,5481,.IMAD.WIDE,5462,5472,4,2,1,0,0,0,6,0,3,0,-1,2,32,0,0,-1,0x2d0,-1,-1,-1,0 
1,1,47,0,0,5482,.IMAD.WIDE,5472,5473,4,2,1,0,0,0,6,0,3,0,-1,2,32,0,0,-1,0x2e0,-1,-1,-1,0 
1,1,48,0,0,5482,.BRA,5472,5474,4,0,0,0,0,0,100,0,7,0,-1,4,0,0,0,-1,0x2f0,-1,-1,-1,0 
1,1,49,0,0,5484,.ISETP.NE.AND,5474,5475,4,1,0,0,0,0,6,0,3,0,-1,2,32,0,0,-1,0x300,-1,-1,-1,0 
1,1,50,0,0,5484,.BMOV.32.CLEAR,5474,5476,4,0,1,0,0,0,100,0,7,0,-1,4,32,0,0,-1,0x310,-1,-1,-1,0 
1,1,51,0,0,5485,.BSSY,5476,5477,4,0,0,0,0,0,100,0,7,0,-1,4,32,0,0,-1,0x320,-1,-1,-1,0 
1,1,52,0,0,5486,.BRA,5476,5478,4,0,0,0,0,0,100,0,7,0,-1,4,0,0,0,-1,0x330,-1,-1,-1,0 
1,1,53,0,0,5488,.ISETP.NE.AND,5478,5479,4,1,0,0,0,0,6,0,3,0,-1,2,32,0,0,-1,0x340,-1,-1,-1,0 
1,1,54,0,0,5492,.BMOV.32.CLEAR,5478,5484,4,0,1,0,0,0,100,0,7,0,-1,4,32,0,0,-1,0x350,-1,-1,-1,0 
1,1,55,0,0,5493,.BSSY,5484,5485,4,0,0,0,0,0,100,0,7,0,-1,4,32,0,0,-1,0x360,-1,-1,-1,0 
1,1,56,0,0,5494,.BRA,5484,5486,4,0,0,0,0,0,100,0,7,0,-1,4,32,0,0,-1,0x370,-1,-1,-1,0 
1,1,57,0,0,5501,.IMAD.MOV.U32,5486,5492,4,3,1,0,0,0,6,0,3,0,-1,2,32,0,0,-1,0x6d0,-1,-1,-1,0 
1,1,58,0,0,5501,.BSYNC,5486,5493,4,0,0,0,0,0,100,0,7,0,-1,4,32,0,0,-1,0x6e0,-1,-1,-1,0 
1,1,61,0,0,5504,.IABS,5495,5496,4,0,1,0,0,0,6,0,3,0,-1,2,32,0,0,-1,0x710,-1,-1,-1,0 
1,1,62,0,0,5510,.IADD3,5495,5501,4,2,1,0,0,0,6,0,3,0,-1,2,32,0,0,-1,0x720,-1,-1,-1,0 
1,1,63,0,0,5513,.I2F.RP,5501,5504,4,1,1,0,0,0,1,0,3,0,-1,2,32,0,0,-1,0x730,-1,-1,-1,0 
1,1,59,0,0,5517,.LDG.E.SYS,5493,5494,1,1,1,1,0,4,8,0,6,0,-1,1,32,0,0,-1,0x6f0,-1,-1,-1,1 
1,1,60,0,0,5518,.LDG.E.SYS,5493,5495,1,1,1,1,0,4,8,0,6,0,-1,1,32,0,0,-1,0x700,-1,-1,-1,1 
1,1,64,0,0,5519,.IABS,5501,5510,4,1,1,0,0,0,6,0,3,0,-1,2,32,0,0,-1,0x740,-1,-1,-1,0 
1,1,65,0,0,5520,.ISETP.GE.AND,5510,5511,4,2,0,0,0,0,6,0,3,0,-1,2,32,0,0,-1,0x750,-1,-1,-1,0 
1,1,66,0,0,5521,.LOP3.LUT,5510,5512,4,2,1,0,0,0,6,0,3,0,-1,2,32,0,0,-1,0x760,-1,-1,-1,0 
1,1,67,0,0,5530,.ISETP.GE.AND,5512,5521,4,2,0,0,0,0,6,0,3,0,-1,2,32,0,0,-1,0x770,-1,-1,-1,0 
1,1,68,0,0,5547,.MUFU.RCP,5512,5522,20,1,1,0,0,0,2,0,4,0,-1,8,32,0,0,-1,0x780,-1,-1,-1,0 
1,1,69,0,0,5556,.IADD3,5522,5547,4,2,1,0,0,0,6,0,3,0,-1,2,32,0,0,-1,0x790,-1,-1,-1,0 
1,1,70,0,0,5565,.F2I.FTZ.U32.TRUNC.NTZ,5522,5556,4,1,1,0,0,0,1,0,3,0,-1,2,32,0,0,-1,0x7a0,-1,-1,-1,0 
1,1,71,0,0,5575,.IMAD.MOV,5556,5565,4,3,1,0,0,0,6,0,3,0,-1,2,32,0,0,-1,0x7b0,-1,-1,-1,0 
1,1,72,0,0,5584,.IMAD,5556,5575,4,3,1,0,0,0,6,0,3,0,-1,2,32,0,0,-1,0x7c0,-1,-1,-1,0 
1,1,73,0,0,5586,.IMAD.MOV.U32,5575,5576,4,3,1,0,0,0,6,0,3,0,-1,2,32,0,0,-1,0x7d0,-1,-1,-1,0 
1,1,74,0,0,5595,.IMAD.WIDE.U32,5575,5586,4,3,1,0,0,0,6,0,3,0,-1,2,32,0,0,-1,0x7e0,-1,-1,-1,0 
1,1,75,0,0,5604,.IMAD.WIDE.U32,5586,5595,4,3,1,0,0,0,6,0,3,0,-1,2,32,0,0,-1,0x7f0,-1,-1,-1,0 
1,1,76,0,0,5606,.IMAD.MOV,5586,5596,4,3,1,0,0,0,6,0,3,0,-1,2,32,0,0,-1,0x800,-1,-1,-1,0 
1,1,77,0,0,5615,.IMAD,5596,5606,4,3,1,0,0,0,6,0,3,0,-1,2,32,0,0,-1,0x810,-1,-1,-1,0 
1,1,78,0,0,5616,.IADD3,5596,5607,4,2,1,0,0,0,6,0,3,0,-1,2,32,0,0,-1,0x820,-1,-1,-1,0 
1,1,79,0,0,5624,.ISETP.GT.U32.AND,5607,5615,4,2,0,0,0,0,6,0,3,0,-1,2,32,0,0,-1,0x830,-1,-1,-1,0 
1,1,80,0,0,5625,.SEL,5607,5616,4,2,1,0,0,0,1,0,3,0,-1,2,32,0,0,-1,0x840,-1,-1,-1,0 
1,1,81,0,0,5626,.IMAD.IADD,5616,5617,4,2,1,0,0,0,6,0,3,0,-1,2,0,0,0,-1,0x850,-1,-1,-1,0 
1,1,82,0,0,5627,.ISETP.NE.AND,5616,5618,4,1,0,0,0,0,6,0,3,0,-1,2,32,0,0,-1,0x860,-1,-1,-1,0 
1,1,83,0,0,5635,.IMAD.IADD,5618,5626,4,2,1,0,0,0,6,0,3,0,-1,2,32,0,0,-1,0x870,-1,-1,-1,0 
1,1,84,0,0,5636,.ISETP.GE.U32.AND,5618,5627,4,2,0,0,0,0,6,0,3,0,-1,2,32,0,0,-1,0x880,-1,-1,-1,0 
1,1,85,0,0,5637,.ISETP.GT.U32.AND,5627,5628,4,2,0,0,0,0,6,0,3,0,-1,2,32,0,0,-1,0x890,-1,-1,-1,0 
1,1,86,0,0,5644,.SEL,5627,5635,4,2,1,0,0,0,1,0,3,0,-1,2,32,0,0,-1,0x8a0,-1,-1,-1,0 
1,1,87,0,0,5645,.LOP3.LUT,5635,5636,4,2,1,0,0,0,6,0,3,0,-1,2,32,0,0,-1,0x8b0,-1,-1,-1,0 
1,1,88,0,0,5653,.IMAD.MOV,5635,5644,4,3,1,0,0,0,6,0,3,0,-1,2,0,0,0,-1,0x8c0,-1,-1,-1,0 
1,1,89,0,0,5654,.IADD3,5644,5645,4,2,1,0,0,0,6,0,3,0,-1,2,0,0,0,-1,0x8d0,-1,-1,-1,0 
1,1,90,0,0,5662,.SEL,5644,5653,4,2,1,0,0,0,1,0,3,0,-1,2,32,0,0,-1,0x8e0,-1,-1,-1,0 
1,1,91,0,0,5664,.IMAD.MOV,5653,5654,4,3,1,0,0,0,6,0,3,0,-1,2,0,0,0,-1,0x8f0,-1,-1,-1,0 
1,1,92,0,0,5671,.ISETP.NE.AND,5653,5662,4,2,0,0,0,0,6,0,3,0,-1,2,32,0,0,-1,0x900,-1,-1,-1,0 
1,1,93,0,0,5673,.SEL,5662,5664,4,2,1,0,0,0,1,0,3,0,-1,2,32,0,0,-1,0x910,-1,-1,-1,0 
1,1,94,0,0,5674,.IMAD.MOV.U32,5662,5665,4,2,1,0,0,0,6,0,3,0,-1,2,32,0,0,-1,0x920,-1,-1,-1,0 
1,1,95,0,0,5682,.IADD3,5665,5673,4,2,1,0,0,0,6,0,3,0,-1,2,32,0,0,-1,0x930,-1,-1,-1,0 
1,1,96,0,0,5692,.IMAD.MOV,5665,5682,4,3,1,0,0,0,6,0,3,0,-1,2,32,0,0,-1,0x940,-1,-1,-1,0 
1,1,97,0,0,5692,.SEL,5682,5683,4,1,1,0,0,0,1,0,3,0,-1,2,32,0,0,-1,0x950,-1,-1,-1,0 
1,1,98,0,0,5701,.IADD3,5682,5692,4,2,1,0,0,0,6,0,3,0,-1,2,32,0,0,-1,0x960,-1,-1,-1,0 
1,1,99,0,0,5702,.IADD3,5692,5693,4,2,1,0,0,0,6,0,3,0,-1,2,32,0,0,-1,0x970,-1,-1,-1,0 
1,1,100,0,0,5711,.IMAD,5692,5702,4,2,1,0,0,0,6,0,3,0,-1,2,32,0,0,-1,0x980,-1,-1,-1,0 
1,1,101,0,0,5720,.IMAD.WIDE,5702,5711,4,2,1,0,0,0,6,0,3,0,-1,2,32,0,0,-1,0x990,-1,-1,-1,0 
1,1,103,0,0,5730,.IMAD,5720,5721,4,2,1,0,0,0,6,0,3,0,-1,2,32,0,0,-1,0x9b0,-1,-1,-1,0 
1,1,104,0,0,5739,.IADD3,5720,5730,4,2,1,0,0,0,6,0,3,0,-1,2,32,0,0,-1,0x9c0,-1,-1,-1,0 
1,1,105,0,0,5748,.IADD3,5730,5739,4,3,1,0,0,0,6,0,3,0,-1,2,32,0,0,-1,0x9d0,-1,-1,-1,0 
1,1,106,0,0,5749,.LEA.HI.X.SX32,5730,5740,4,2,1,0,0,0,6,0,3,0,-1,2,32,0,0,-1,0x9e0,-1,-1,-1,0 
1,1,107,0,0,5757,.LEA,5740,5748,4,2,1,0,0,0,6,0,3,0,-1,2,32,0,0,-1,0x9f0,-1,-1,-1,0 
1,1,108,0,0,5758,.LEA.HI.X,5740,5749,4,3,1,0,0,0,6,0,3,0,-1,2,32,0,0,-1,0xa00,-1,-1,-1,0 
1,1,109,0,0,5759,.IADD3,5749,5750,4,2,1,0,0,0,6,0,3,0,-1,2,32,0,0,-1,0xa10,-1,-1,-1,0 
1,1,102,0,0,5916,.LDG.E.SYS,5702,5720,1,1,1,1,0,4,8,0,6,0,-1,1,32,0,0,-1,0x9a0,-1,-1,-1,1 
1,1,110,0,0,5922,.STG.E.SYS,5749,5916,1,2,0,0,1,4,11,0,6,0,-1,1,32,0,0,-1,0xa20,-1,-1,-1,1 
1,1,111,0,0,5925,.BSYNC,5916,5917,4,0,0,0,0,0,100,0,7,0,-1,4,32,0,0,-1,0xa30,-1,-1,-1,0 
1,1,114,0,0,5928,.IABS,5918,5920,4,0,1,0,0,0,6,0,3,0,-1,2,32,0,0,-1,0xa60,-1,-1,-1,0 
1,1,115,0,0,5931,.IMAD.MOV.U32,5920,5921,4,3,1,0,0,0,6,0,3,0,-1,2,32,0,0,-1,0xa70,-1,-1,-1,0 
1,1,116,0,0,5931,.IADD3,5920,5922,4,2,1,0,0,0,6,0,3,0,-1,2,32,0,0,-1,0xa80,-1,-1,-1,0 
1,1,117,0,0,5937,.I2F.RP,5922,5928,4,1,1,0,0,0,1,0,3,0,-1,2,32,0,0,-1,0xa90,-1,-1,-1,0 
1,1,118,0,0,5940,.IABS,5922,5931,4,1,1,0,0,0,6,0,3,0,-1,2,32,0,0,-1,0xaa0,-1,-1,-1,0 
1,1,119,0,0,5941,.ISETP.GE.AND,5931,5932,4,2,0,0,0,0,6,0,3,0,-1,2,32,0,0,-1,0xab0,-1,-1,-1,0 
1,1,120,0,0,5942,.LOP3.LUT,5931,5933,4,2,1,0,0,0,6,0,3,0,-1,2,32,0,0,-1,0xac0,-1,-1,-1,0 
1,1,112,0,0,5943,.LDG.E.SYS,5916,5918,1,1,1,1,0,4,8,0,6,0,-1,1,32,0,0,-1,0xa40,-1,-1,-1,1 
1,1,113,0,0,5944,.LDG.E.SYS,5918,5919,1,1,1,1,0,4,8,0,6,0,-1,1,32,0,0,-1,0xa50,-1,-1,-1,1 
1,1,121,0,0,5951,.ISETP.GE.AND,5933,5942,4,2,0,0,0,0,6,0,3,0,-1,2,32,0,0,-1,0xad0,-1,-1,-1,0 
1,1,122,0,0,5968,.MUFU.RCP,5933,5943,20,1,1,0,0,0,2,0,4,0,-1,8,32,0,0,-1,0xae0,-1,-1,-1,0 
1,1,123,0,0,5977,.IADD3,5943,5968,4,2,1,0,0,0,6,0,3,0,-1,2,32,0,0,-1,0xaf0,-1,-1,-1,0 
1,1,124,0,0,5986,.F2I.FTZ.U32.TRUNC.NTZ,5943,5977,4,1,1,0,0,0,1,0,3,0,-1,2,32,0,0,-1,0xb00,-1,-1,-1,0 
1,1,125,0,0,5995,.IMAD.MOV,5977,5986,4,3,1,0,0,0,6,0,3,0,-1,2,32,0,0,-1,0xb10,-1,-1,-1,0 
1,1,126,0,0,6004,.IMAD,5977,5995,4,3,1,0,0,0,6,0,3,0,-1,2,32,0,0,-1,0xb20,-1,-1,-1,0 
1,1,127,0,0,6013,.IMAD.WIDE.U32,5995,6004,4,3,1,0,0,0,6,0,3,0,-1,2,32,0,0,-1,0xb30,-1,-1,-1,0 
1,1,128,0,0,6014,.IMAD.MOV.U32,5995,6005,4,3,1,0,0,0,6,0,3,0,-1,2,32,0,0,-1,0xb40,-1,-1,-1,0 
1,1,129,0,0,6023,.IMAD.WIDE.U32,6005,6014,4,3,1,0,0,0,6,0,3,0,-1,2,32,0,0,-1,0xb50,-1,-1,-1,0 
1,1,130,0,0,6032,.IMAD.MOV,6005,6023,4,3,1,0,0,0,6,0,3,0,-1,2,32,0,0,-1,0xb60,-1,-1,-1,0 
1,1,131,0,0,6041,.IMAD,6023,6032,4,3,1,0,0,0,6,0,3,0,-1,2,32,0,0,-1,0xb70,-1,-1,-1,0 
1,1,132,0,0,6050,.ISETP.GT.U32.AND,6023,6041,4,2,0,0,0,0,6,0,3,0,-1,2,32,0,0,-1,0xb80,-1,-1,-1,0 
1,1,133,0,0,6051,.IMAD.IADD,6041,6042,4,2,1,0,0,0,6,0,3,0,-1,2,0,0,0,-1,0xb90,-1,-1,-1,0 
1,1,134,0,0,6060,.IMAD.IADD,6041,6051,4,2,1,0,0,0,6,0,3,0,-1,2,32,0,0,-1,0xba0,-1,-1,-1,0 
1,1,135,0,0,6061,.ISETP.GE.U32.AND,6051,6052,4,2,0,0,0,0,6,0,3,0,-1,2,32,0,0,-1,0xbb0,-1,-1,-1,0 
1,1,136,0,0,6062,.ISETP.GT.U32.AND,6051,6053,4,2,0,0,0,0,6,0,3,0,-1,2,32,0,0,-1,0xbc0,-1,-1,-1,0 
1,1,137,0,0,6063,.IADD3,6053,6054,4,2,1,0,0,0,6,0,3,0,-1,2,32,0,0,-1,0xbd0,-1,-1,-1,0 
1,1,138,0,0,6069,.SEL,6053,6060,4,2,1,0,0,0,1,0,3,0,-1,2,32,0,0,-1,0xbe0,-1,-1,-1,0 
1,1,139,0,0,6072,.SEL,6060,6063,4,2,1,0,0,0,1,0,3,0,-1,2,32,0,0,-1,0xbf0,-1,-1,-1,0 
1,1,140,0,0,6073,.ISETP.NE.AND,6060,6064,4,1,0,0,0,0,6,0,3,0,-1,2,32,0,0,-1,0xc00,-1,-1,-1,0 
1,1,141,0,0,6079,.IMAD.MOV,6064,6069,4,3,1,0,0,0,6,0,3,0,-1,2,0,0,0,-1,0xc10,-1,-1,-1,0 
1,1,142,0,0,6080,.LOP3.LUT,6064,6070,4,2,1,0,0,0,6,0,3,0,-1,2,32,0,0,-1,0xc20,-1,-1,-1,0 
1,1,143,0,0,6081,.IADD3,6070,6072,4,2,1,0,0,0,6,0,3,0,-1,2,0,0,0,-1,0xc30,-1,-1,-1,0 
1,1,144,0,0,6089,.SEL,6070,6080,4,2,1,0,0,0,1,0,3,0,-1,2,32,0,0,-1,0xc40,-1,-1,-1,0 
1,1,145,0,0,6090,.IMAD.MOV,6080,6081,4,3,1,0,0,0,6,0,3,0,-1,2,0,0,0,-1,0xc50,-1,-1,-1,0 
1,1,146,0,0,6098,.ISETP.NE.AND,6080,6089,4,2,0,0,0,0,6,0,3,0,-1,2,32,0,0,-1,0xc60,-1,-1,-1,0 
1,1,147,0,0,6099,.SEL,6089,6090,4,2,1,0,0,0,1,0,3,0,-1,2,32,0,0,-1,0xc70,-1,-1,-1,0 
1,1,148,0,0,6100,.SEL,6089,6091,4,1,1,0,0,0,1,0,3,0,-1,2,32,0,0,-1,0xc80,-1,-1,-1,0 
1,1,149,0,0,6108,.IADD3,6091,6099,4,2,1,0,0,0,6,0,3,0,-1,2,32,0,0,-1,0xc90,-1,-1,-1,0 
1,1,150,0,0,6117,.IMAD.MOV,6091,6108,4,3,1,0,0,0,6,0,3,0,-1,2,32,0,0,-1,0xca0,-1,-1,-1,0 
1,1,151,0,0,6118,.IMAD.MOV.U32,6108,6109,4,2,1,0,0,0,6,0,3,0,-1,2,32,0,0,-1,0xcb0,-1,-1,-1,0 
1,1,152,0,0,6126,.IADD3,6108,6117,4,2,1,0,0,0,6,0,3,0,-1,2,32,0,0,-1,0xcc0,-1,-1,-1,0 
1,1,153,0,0,6127,.IADD3,6117,6118,4,2,1,0,0,0,6,0,3,0,-1,2,32,0,0,-1,0xcd0,-1,-1,-1,0 
1,1,154,0,0,6136,.IMAD,6117,6127,4,2,1,0,0,0,6,0,3,0,-1,2,32,0,0,-1,0xce0,-1,-1,-1,0 
1,1,155,0,0,6145,.IMAD.WIDE,6127,6136,4,2,1,0,0,0,6,0,3,0,-1,2,32,0,0,-1,0xcf0,-1,-1,-1,0 
1,1,157,0,0,6155,.IMAD,6145,6146,4,2,1,0,0,0,6,0,3,0,-1,2,32,0,0,-1,0xd10,-1,-1,-1,0 
1,1,158,0,0,6156,.IADD3,6145,6147,4,2,1,0,0,0,6,0,3,0,-1,2,32,0,0,-1,0xd20,-1,-1,-1,0 
1,1,159,0,0,6164,.IADD3,6147,6155,4,2,1,0,0,0,6,0,3,0,-1,2,32,0,0,-1,0xd30,-1,-1,-1,0 
1,1,160,0,0,6173,.IADD3,6147,6164,4,3,1,0,0,0,6,0,3,0,-1,2,32,0,0,-1,0xd40,-1,-1,-1,0 
1,1,161,0,0,6174,.LEA.HI.X.SX32,6164,6165,4,2,1,0,0,0,6,0,3,0,-1,2,32,0,0,-1,0xd50,-1,-1,-1,0 
1,1,162,0,0,6182,.LEA,6164,6173,4,2,1,0,0,0,6,0,3,0,-1,2,32,0,0,-1,0xd60,-1,-1,-1,0 
1,1,163,0,0,6184,.LEA.HI.X,6173,6174,4,3,1,0,0,0,6,0,3,0,-1,2,32,0,0,-1,0xd70,-1,-1,-1,0 
1,1,156,0,0,6341,.LDG.E.SYS,6127,6145,1,1,1,1,0,4,8,0,6,0,-1,1,32,0,0,-1,0xd00,-1,-1,-1,1 
1,1,164,0,0,6347,.STG.E.SYS,6173,6341,1,2,0,0,1,4,11,0,6,0,-1,1,32,0,0,-1,0xd80,-1,-1,-1,1 
1,1,165,0,0,6350,.BSYNC,6341,6342,4,0,0,0,0,0,100,0,7,0,-1,4,32,0,0,-1,0xd90,-1,-1,-1,0 
1,1,166,0,0,6352,.ISETP.GE.U32.AND,6341,6343,4,1,0,0,0,0,6,0,3,0,-1,2,32,0,0,-1,0xda0,-1,-1,-1,0 
1,1,167,0,0,6352,.BRA,6343,6344,4,0,0,0,0,0,100,0,7,0,-1,4,0,0,0,-1,0xdb0,-1,-1,-1,0 
1,1,168,0,0,6353,.IABS,6343,6345,4,0,1,0,0,0,6,0,3,0,-1,2,32,0,0,-1,0xdc0,-1,-1,-1,0 
1,1,169,0,0,6362,.I2F.RP,6345,6353,4,1,1,0,0,0,1,0,3,0,-1,2,32,0,0,-1,0xdd0,-1,-1,-1,0 
1,1,170,0,0,6387,.MUFU.RCP,6345,6362,20,1,1,0,0,0,2,0,4,0,-1,8,32,0,0,-1,0xde0,-1,-1,-1,0 
1,1,171,0,0,6396,.IADD3,6362,6387,4,2,1,0,0,0,6,0,3,0,-1,2,32,0,0,-1,0xdf0,-1,-1,-1,0 
1,1,172,0,0,6405,.F2I.FTZ.U32.TRUNC.NTZ,6362,6396,4,1,1,0,0,0,1,0,3,0,-1,2,32,0,0,-1,0xe00,-1,-1,-1,0 
1,1,173,0,0,6407,.IMAD.MOV.U32,6396,6397,4,3,1,0,0,0,6,0,3,0,-1,2,32,0,0,-1,0xe10,-1,-1,-1,0 
1,1,174,0,0,6414,.IMAD.MOV,6396,6405,4,3,1,0,0,0,6,0,3,0,-1,2,32,0,0,-1,0xe20,-1,-1,-1,0 
1,1,175,0,0,6423,.IMAD,6405,6414,4,3,1,0,0,0,6,0,3,0,-1,2,32,0,0,-1,0xe30,-1,-1,-1,0 
1,1,176,0,0,6432,.IMAD.WIDE.U32,6405,6423,4,3,1,0,0,0,6,0,3,0,-1,2,32,0,0,-1,0xe40,-1,-1,-1,0 
1,1,179,0,0,6435,.IADD3,6425,6426,4,2,1,0,0,0,6,0,3,0,-1,2,32,0,0,-1,0xe70,-1,-1,-1,0 
1,1,180,0,0,6435,.IABS,6425,6427,4,0,1,0,0,0,6,0,3,0,-1,2,32,0,0,-1,0xe80,-1,-1,-1,0 
1,1,181,0,0,6444,.IABS,6427,6435,4,1,1,0,0,0,6,0,3,0,-1,2,32,0,0,-1,0xe90,-1,-1,-1,0 
1,1,182,0,0,6445,.ISETP.GE.AND,6427,6436,4,2,0,0,0,0,6,0,3,0,-1,2,32,0,0,-1,0xea0,-1,-1,-1,0 
1,1,183,0,0,6446,.LOP3.LUT,6436,6437,4,2,1,0,0,0,6,0,3,0,-1,2,32,0,0,-1,0xeb0,-1,-1,-1,0 
1,1,177,0,0,6447,.LDG.E.SYS,6423,6424,1,1,1,1,0,4,8,0,6,0,-1,1,32,0,0,-1,0xe50,-1,-1,-1,1 
1,1,178,0,0,6448,.LDG.E.SYS,6423,6425,1,1,1,1,0,4,8,0,6,0,-1,1,32,0,0,-1,0xe60,-1,-1,-1,1 
1,1,184,0,0,6453,.IMAD.WIDE.U32,6436,6444,4,3,1,0,0,0,6,0,3,0,-1,2,32,0,0,-1,0xec0,-1,-1,-1,0 
1,1,185,0,0,6455,.ISETP.GE.AND,6444,6446,4,2,0,0,0,0,6,0,3,0,-1,2,32,0,0,-1,0xed0,-1,-1,-1,0 
1,1,186,0,0,6462,.IMAD.MOV,6444,6453,4,3,1,0,0,0,6,0,3,0,-1,2,32,0,0,-1,0xee0,-1,-1,-1,0 
1,1,187,0,0,6471,.IMAD,6453,6462,4,3,1,0,0,0,6,0,3,0,-1,2,32,0,0,-1,0xef0,-1,-1,-1,0 
1,1,188,0,0,6472,.IADD3,6453,6463,4,2,1,0,0,0,6,0,3,0,-1,2,32,0,0,-1,0xf00,-1,-1,-1,0 
1,1,189,0,0,6480,.ISETP.GT.U32.AND,6463,6471,4,2,0,0,0,0,6,0,3,0,-1,2,32,0,0,-1,0xf10,-1,-1,-1,0 
1,1,190,0,0,6481,.SEL,6463,6472,4,2,1,0,0,0,1,0,3,0,-1,2,32,0,0,-1,0xf20,-1,-1,-1,0 
1,1,191,0,0,6482,.IMAD.IADD,6472,6473,4,2,1,0,0,0,6,0,3,0,-1,2,0,0,0,-1,0xf30,-1,-1,-1,0 
1,1,192,0,0,6483,.ISETP.NE.AND,6472,6474,4,1,0,0,0,0,6,0,3,0,-1,2,32,0,0,-1,0xf40,-1,-1,-1,0 
1,1,193,0,0,6491,.IMAD.IADD,6474,6482,4,2,1,0,0,0,6,0,3,0,-1,2,32,0,0,-1,0xf50,-1,-1,-1,0 
1,1,194,0,0,6492,.ISETP.GT.U32.AND,6474,6483,4,2,0,0,0,0,6,0,3,0,-1,2,32,0,0,-1,0xf60,-1,-1,-1,0 
1,1,195,0,0,6494,.IMAD.MOV.U32,6483,6484,4,3,1,0,0,0,6,0,3,0,-1,2,32,0,0,-1,0xf70,-1,-1,-1,0 
1,1,196,0,0,6500,.SEL,6483,6491,4,2,1,0,0,0,1,0,3,0,-1,2,32,0,0,-1,0xf80,-1,-1,-1,0 
1,1,197,0,0,6503,.ISETP.GE.U32.AND,6491,6494,4,2,0,0,0,0,6,0,3,0,-1,2,32,0,0,-1,0xf90,-1,-1,-1,0 
1,1,198,0,0,6504,.LOP3.LUT,6491,6495,4,2,1,0,0,0,6,0,3,0,-1,2,32,0,0,-1,0xfa0,-1,-1,-1,0 
1,1,199,0,0,6510,.IMAD.MOV,6495,6500,4,3,1,0,0,0,6,0,3,0,-1,2,0,0,0,-1,0xfb0,-1,-1,-1,0 
1,1,200,0,0,6519,.SEL,6495,6510,4,2,1,0,0,0,1,0,3,0,-1,2,32,0,0,-1,0xfc0,-1,-1,-1,0 
1,1,201,0,0,6520,.IADD3,6510,6511,4,2,1,0,0,0,6,0,3,0,-1,2,0,0,0,-1,0xfd0,-1,-1,-1,0 
1,1,202,0,0,6528,.ISETP.NE.AND,6510,6519,4,2,0,0,0,0,6,0,3,0,-1,2,32,0,0,-1,0xfe0,-1,-1,-1,0 
1,1,203,0,0,6529,.IMAD.MOV,6519,6520,4,3,1,0,0,0,6,0,3,0,-1,2,0,0,0,-1,0xff0,-1,-1,-1,0 
1,1,204,0,0,6530,.SEL,6519,6521,4,1,1,0,0,0,1,0,3,0,-1,2,32,0,0,-1,0x1000,-1,-1,-1,0 
1,1,205,0,0,6538,.SEL,6521,6529,4,2,1,0,0,0,1,0,3,0,-1,2,32,0,0,-1,0x1010,-1,-1,-1,0 
1,1,206,0,0,6547,.IADD3,6521,6538,4,2,1,0,0,0,6,0,3,0,-1,2,32,0,0,-1,0x1020,-1,-1,-1,0 
1,1,207,0,0,6556,.IMAD.MOV,6538,6547,4,3,1,0,0,0,6,0,3,0,-1,2,32,0,0,-1,0x1030,-1,-1,-1,0 
1,1,208,0,0,6557,.IMAD.MOV.U32,6538,6548,4,2,1,0,0,0,6,0,3,0,-1,2,32,0,0,-1,0x1040,-1,-1,-1,0 
1,1,209,0,0,6558,.IADD3,6548,6549,4,2,1,0,0,0,6,0,3,0,-1,2,32,0,0,-1,0x1050,-1,-1,-1,0 
1,1,210,0,0,6565,.IADD3,6548,6556,4,2,1,0,0,0,6,0,3,0,-1,2,32,0,0,-1,0x1060,-1,-1,-1,0 
1,1,211,0,0,6574,.IMAD,6556,6565,4,2,1,0,0,0,6,0,3,0,-1,2,32,0,0,-1,0x1070,-1,-1,-1,0 
1,1,212,0,0,6583,.IMAD.WIDE,6556,6574,4,2,1,0,0,0,6,0,3,0,-1,2,32,0,0,-1,0x1080,-1,-1,-1,0 
1,1,214,0,0,6593,.IMAD,6574,6584,4,2,1,0,0,0,6,0,3,0,-1,2,32,0,0,-1,0x10a0,-1,-1,-1,0 
1,1,215,0,0,6602,.IADD3,6584,6593,4,2,1,0,0,0,6,0,3,0,-1,2,32,0,0,-1,0x10b0,-1,-1,-1,0 
1,1,216,0,0,6611,.IADD3,6584,6602,4,3,1,0,0,0,6,0,3,0,-1,2,32,0,0,-1,0x10c0,-1,-1,-1,0 
1,1,217,0,0,6612,.LEA.HI.X.SX32,6602,6603,4,2,1,0,0,0,6,0,3,0,-1,2,32,0,0,-1,0x10d0,-1,-1,-1,0 
1,1,218,0,0,6620,.LEA,6602,6611,4,2,1,0,0,0,6,0,3,0,-1,2,32,0,0,-1,0x10e0,-1,-1,-1,0 
1,1,219,0,0,6621,.LEA.HI.X,6611,6612,4,3,1,0,0,0,6,0,3,0,-1,2,32,0,0,-1,0x10f0,-1,-1,-1,0 
1,1,220,0,0,6622,.I2F.RP,6611,6613,4,1,1,0,0,0,1,0,3,0,-1,2,32,0,0,-1,0x1100,-1,-1,-1,0 
1,1,221,0,0,6647,.MUFU.RCP,6613,6622,20,1,1,0,0,0,2,0,4,0,-1,8,32,0,0,-1,0x1110,-1,-1,-1,0 
1,1,222,0,0,6656,.IADD3,6613,6647,4,2,1,0,0,0,6,0,3,0,-1,2,32,0,0,-1,0x1120,-1,-1,-1,0 
1,1,223,0,0,6665,.F2I.FTZ.U32.TRUNC.NTZ,6647,6656,4,1,1,0,0,0,1,0,3,0,-1,2,32,0,0,-1,0x1130,-1,-1,-1,0 
1,1,224,0,0,6666,.IADD3,6647,6657,4,2,1,0,0,0,6,0,3,0,-1,2,32,0,0,-1,0x1140,-1,-1,-1,0 
1,1,225,0,0,6675,.IMAD.MOV,6657,6665,4,3,1,0,0,0,6,0,3,0,-1,2,32,0,0,-1,0x1150,-1,-1,-1,0 
1,1,226,0,0,6684,.IMAD,6657,6675,4,3,1,0,0,0,6,0,3,0,-1,2,32,0,0,-1,0x1160,-1,-1,-1,0 
1,1,213,0,0,6779,.LDG.E.SYS,6574,6583,1,1,1,1,0,4,8,0,6,0,-1,1,32,0,0,-1,0x1090,-1,-1,-1,1 
1,1,227,0,0,6785,.STG.E.SYS,6675,6779,1,2,0,0,1,4,11,0,6,0,-1,1,32,0,0,-1,0x1170,-1,-1,-1,1 
1,1,230,0,0,6792,.IMAD.MOV.U32,6780,6782,4,3,1,0,0,0,6,0,3,0,-1,2,32,0,0,-1,0x11a0,-1,-1,-1,0 
1,1,231,0,0,6792,.IABS,6782,6783,4,1,1,0,0,0,6,0,3,0,-1,2,32,0,0,-1,0x11b0,-1,-1,-1,0 
1,1,232,0,0,6793,.ISETP.GE.AND,6782,6784,4,2,0,0,0,0,6,0,3,0,-1,2,32,0,0,-1,0x11c0,-1,-1,-1,0 
1,1,233,0,0,6801,.IMAD.WIDE.U32,6784,6792,4,3,1,0,0,0,6,0,3,0,-1,2,32,0,0,-1,0x11d0,-1,-1,-1,0 
1,1,234,0,0,6802,.IMAD.WIDE.U32,6784,6793,4,3,1,0,0,0,6,0,3,0,-1,2,32,0,0,-1,0x11e0,-1,-1,-1,0 
1,1,228,0,0,6806,.LDG.E.SYS,6675,6780,1,1,1,1,0,4,8,0,6,0,-1,1,32,0,0,-1,0x1180,-1,-1,-1,1 
1,1,229,0,0,6807,.LDG.E.SYS,6780,6781,1,1,1,1,0,4,8,0,6,0,-1,1,32,0,0,-1,0x1190,-1,-1,-1,1 
1,1,235,0,0,6810,.IMAD.MOV,6793,6801,4,3,1,0,0,0,6,0,3,0,-1,2,32,0,0,-1,0x11f0,-1,-1,-1,0 
1,1,236,0,0,6811,.LOP3.LUT,6793,6802,4,2,1,0,0,0,6,0,3,0,-1,2,32,0,0,-1,0x1200,-1,-1,-1,0 
1,1,237,0,0,6819,.IMAD,6802,6810,4,3,1,0,0,0,6,0,3,0,-1,2,32,0,0,-1,0x1210,-1,-1,-1,0 
1,1,238,0,0,6820,.ISETP.GE.AND,6802,6811,4,2,0,0,0,0,6,0,3,0,-1,2,32,0,0,-1,0x1220,-1,-1,-1,0 
1,1,239,0,0,6821,.IADD3,6811,6812,4,2,1,0,0,0,6,0,3,0,-1,2,32,0,0,-1,0x1230,-1,-1,-1,0 
1,1,240,0,0,6828,.ISETP.GT.U32.AND,6811,6819,4,2,0,0,0,0,6,0,3,0,-1,2,32,0,0,-1,0x1240,-1,-1,-1,0 
1,1,241,0,0,6830,.SEL,6819,6821,4,2,1,0,0,0,1,0,3,0,-1,2,32,0,0,-1,0x1250,-1,-1,-1,0 
1,1,242,0,0,6831,.IMAD.IADD,6819,6822,4,2,1,0,0,0,6,0,3,0,-1,2,0,0,0,-1,0x1260,-1,-1,-1,0 
1,1,243,0,0,6840,.IMAD.IADD,6822,6831,4,2,1,0,0,0,6,0,3,0,-1,2,32,0,0,-1,0x1270,-1,-1,-1,0 
1,1,244,0,0,6841,.ISETP.GE.U32.AND,6822,6832,4,2,0,0,0,0,6,0,3,0,-1,2,32,0,0,-1,0x1280,-1,-1,-1,0 
1,1,245,0,0,6842,.ISETP.GT.U32.AND,6832,6833,4,2,0,0,0,0,6,0,3,0,-1,2,32,0,0,-1,0x1290,-1,-1,-1,0 
1,1,246,0,0,6849,.SEL,6832,6840,4,2,1,0,0,0,1,0,3,0,-1,2,32,0,0,-1,0x12a0,-1,-1,-1,0 
1,1,247,0,0,6859,.IMAD.MOV,6840,6849,4,3,1,0,0,0,6,0,3,0,-1,2,0,0,0,-1,0x12b0,-1,-1,-1,0 
1,1,248,0,0,6859,.IADD3,6840,6850,4,2,1,0,0,0,6,0,3,0,-1,2,0,0,0,-1,0x12c0,-1,-1,-1,0 
1,1,249,0,0,6868,.SEL,6850,6859,4,2,1,0,0,0,1,0,3,0,-1,2,32,0,0,-1,0x12d0,-1,-1,-1,0 
1,1,250,0,0,6869,.IMAD.MOV,6850,6860,4,3,1,0,0,0,6,0,3,0,-1,2,0,0,0,-1,0x12e0,-1,-1,-1,0 
1,1,251,0,0,6877,.ISETP.NE.AND,6860,6868,4,2,0,0,0,0,6,0,3,0,-1,2,32,0,0,-1,0x12f0,-1,-1,-1,0 
1,1,252,0,0,6878,.SEL,6860,6869,4,2,1,0,0,0,1,0,3,0,-1,2,32,0,0,-1,0x1300,-1,-1,-1,0 
1,1,253,0,0,6879,.SEL,6869,6870,4,1,1,0,0,0,1,0,3,0,-1,2,32,0,0,-1,0x1310,-1,-1,-1,0 
1,1,254,0,0,6887,.IADD3,6869,6878,4,2,1,0,0,0,6,0,3,0,-1,2,32,0,0,-1,0x1320,-1,-1,-1,0 
1,1,255,0,0,6896,.IMAD.MOV,6878,6887,4,3,1,0,0,0,6,0,3,0,-1,2,32,0,0,-1,0x1330,-1,-1,-1,0 
1,1,256,0,0,6905,.IADD3,6878,6896,4,2,1,0,0,0,6,0,3,0,-1,2,32,0,0,-1,0x1340,-1,-1,-1,0 
1,1,257,0,0,6906,.IADD3,6896,6897,4,2,1,0,0,0,6,0,3,0,-1,2,32,0,0,-1,0x1350,-1,-1,-1,0 
1,1,258,0,0,6915,.IMAD,6896,6906,4,2,1,0,0,0,6,0,3,0,-1,2,32,0,0,-1,0x1360,-1,-1,-1,0 
1,1,259,0,0,6924,.IMAD.WIDE,6906,6915,4,2,1,0,0,0,6,0,3,0,-1,2,32,0,0,-1,0x1370,-1,-1,-1,0 
1,1,261,0,0,6934,.IMAD,6924,6925,4,2,1,0,0,0,6,0,3,0,-1,2,32,0,0,-1,0x1390,-1,-1,-1,0 
1,1,262,0,0,6943,.IADD3,6924,6934,4,2,1,0,0,0,6,0,3,0,-1,2,32,0,0,-1,0x13a0,-1,-1,-1,0 
1,1,263,0,0,6952,.IADD3,6934,6943,4,3,1,0,0,0,6,0,3,0,-1,2,32,0,0,-1,0x13b0,-1,-1,-1,0 
1,1,264,0,0,6953,.LEA.HI.X.SX32,6934,6944,4,2,1,0,0,0,6,0,3,0,-1,2,32,0,0,-1,0x13c0,-1,-1,-1,0 
1,1,265,0,0,6961,.LEA,6944,6952,4,2,1,0,0,0,6,0,3,0,-1,2,32,0,0,-1,0x13d0,-1,-1,-1,0 
1,1,266,0,0,6962,.LEA.HI.X,6944,6953,4,3,1,0,0,0,6,0,3,0,-1,2,32,0,0,-1,0x13e0,-1,-1,-1,0 
1,1,267,0,0,6963,.IADD3,6953,6954,4,2,1,0,0,0,6,0,3,0,-1,2,32,0,0,-1,0x13f0,-1,-1,-1,0 
1,1,268,0,0,6972,.IABS,6953,6963,4,1,1,0,0,0,6,0,3,0,-1,2,32,0,0,-1,0x1400,-1,-1,-1,0 
1,1,269,0,0,6981,.IMAD.WIDE.U32,6963,6972,4,3,1,0,0,0,6,0,3,0,-1,2,32,0,0,-1,0x1410,-1,-1,-1,0 
1,1,270,0,0,6990,.IMAD.MOV,6963,6981,4,3,1,0,0,0,6,0,3,0,-1,2,32,0,0,-1,0x1420,-1,-1,-1,0 
1,1,271,0,0,6999,.IMAD,6981,6990,4,3,1,0,0,0,6,0,3,0,-1,2,32,0,0,-1,0x1430,-1,-1,-1,0 
1,1,272,0,0,7008,.ISETP.GT.U32.AND,6981,6999,4,2,0,0,0,0,6,0,3,0,-1,2,32,0,0,-1,0x1440,-1,-1,-1,0 
1,1,260,0,0,7120,.LDG.E.SYS,6906,6924,1,1,1,1,0,4,8,0,6,0,-1,1,32,0,0,-1,0x1380,-1,-1,-1,1 
1,1,273,0,0,7126,.STG.E.SYS,6999,7120,1,2,0,0,1,4,11,0,6,0,-1,1,32,0,0,-1,0x1450,-1,-1,-1,1 
1,1,276,0,0,7132,.IMAD.IADD,7121,7123,4,2,1,0,0,0,6,0,3,0,-1,2,0,0,0,-1,0x1480,-1,-1,-1,0 
1,1,277,0,0,7133,.ISETP.GE.AND,7123,7124,4,2,0,0,0,0,6,0,3,0,-1,2,32,0,0,-1,0x1490,-1,-1,-1,0 
1,1,278,0,0,7134,.LOP3.LUT,7123,7125,4,2,1,0,0,0,6,0,3,0,-1,2,32,0,0,-1,0x14a0,-1,-1,-1,0 
1,1,279,0,0,7141,.IMAD.IADD,7125,7132,4,2,1,0,0,0,6,0,3,0,-1,2,32,0,0,-1,0x14b0,-1,-1,-1,0 
1,1,280,0,0,7142,.ISETP.GE.U32.AND,7125,7133,4,2,0,0,0,0,6,0,3,0,-1,2,32,0,0,-1,0x14c0,-1,-1,-1,0 
1,1,281,0,0,7143,.ISETP.GT.U32.AND,7133,7134,4,2,0,0,0,0,6,0,3,0,-1,2,32,0,0,-1,0x14d0,-1,-1,-1,0 
1,1,282,0,0,7144,.ISETP.GE.AND,7133,7135,4,2,0,0,0,0,6,0,3,0,-1,2,32,0,0,-1,0x14e0,-1,-1,-1,0 
1,1,283,0,0,7145,.IADD3,7135,7136,4,2,1,0,0,0,6,0,3,0,-1,2,32,0,0,-1,0x14f0,-1,-1,-1,0 
1,1,274,0,0,7147,.LDG.E.SYS,6999,7121,1,1,1,1,0,4,8,0,6,0,-1,1,32,0,0,-1,0x1460,-1,-1,-1,1 
1,1,275,0,0,7148,.LDG.E.SYS,7121,7122,1,1,1,1,0,4,8,0,6,0,-1,1,32,0,0,-1,0x1470,-1,-1,-1,1 
1,1,284,0,0,7150,.SEL,7135,7141,4,2,1,0,0,0,1,0,3,0,-1,2,32,0,0,-1,0x1500,-1,-1,-1,0 
1,1,285,0,0,7154,.SEL,7141,7145,4,2,1,0,0,0,1,0,3,0,-1,2,32,0,0,-1,0x1510,-1,-1,-1,0 
1,1,286,0,0,7160,.IMAD.MOV,7141,7150,4,3,1,0,0,0,6,0,3,0,-1,2,0,0,0,-1,0x1520,-1,-1,-1,0 
1,1,287,0,0,7163,.IADD3,7150,7154,4,2,1,0,0,0,6,0,3,0,-1,2,0,0,0,-1,0x1530,-1,-1,-1,0 
1,1,288,0,0,7169,.SEL,7150,7160,4,2,1,0,0,0,1,0,3,0,-1,2,32,0,0,-1,0x1540,-1,-1,-1,0 
1,1,289,0,0,7172,.IMAD.MOV,7160,7163,4,3,1,0,0,0,6,0,3,0,-1,2,0,0,0,-1,0x1550,-1,-1,-1,0 
1,1,290,0,0,7178,.ISETP.NE.AND,7160,7169,4,2,0,0,0,0,6,0,3,0,-1,2,32,0,0,-1,0x1560,-1,-1,-1,0 
1,1,291,0,0,7181,.SEL,7169,7172,4,2,1,0,0,0,1,0,3,0,-1,2,32,0,0,-1,0x1570,-1,-1,-1,0 
1,1,292,0,0,7182,.SEL,7169,7173,4,1,1,0,0,0,1,0,3,0,-1,2,32,0,0,-1,0x1580,-1,-1,-1,0 
1,1,293,0,0,7190,.IADD3,7173,7181,4,2,1,0,0,0,6,0,3,0,-1,2,32,0,0,-1,0x1590,-1,-1,-1,0 
1,1,294,0,0,7199,.IMAD.MOV,7173,7190,4,3,1,0,0,0,6,0,3,0,-1,2,32,0,0,-1,0x15a0,-1,-1,-1,0 
1,1,295,0,0,7208,.IADD3,7190,7199,4,2,1,0,0,0,6,0,3,0,-1,2,32,0,0,-1,0x15b0,-1,-1,-1,0 
1,1,296,0,0,7209,.IADD3,7190,7200,4,2,1,0,0,0,6,0,3,0,-1,2,32,0,0,-1,0x15c0,-1,-1,-1,0 
1,1,297,0,0,7218,.IMAD,7200,7209,4,2,1,0,0,0,6,0,3,0,-1,2,32,0,0,-1,0x15d0,-1,-1,-1,0 
1,1,298,0,0,7227,.IMAD.WIDE,7200,7218,4,2,1,0,0,0,6,0,3,0,-1,2,32,0,0,-1,0x15e0,-1,-1,-1,0 
1,1,300,0,0,7237,.IMAD,7218,7228,4,2,1,0,0,0,6,0,3,0,-1,2,32,0,0,-1,0x1600,-1,-1,-1,0 
1,1,301,0,0,7246,.IADD3,7228,7237,4,2,1,0,0,0,6,0,3,0,-1,2,32,0,0,-1,0x1610,-1,-1,-1,0 
1,1,302,0,0,7255,.IADD3,7228,7246,4,3,1,0,0,0,6,0,3,0,-1,2,32,0,0,-1,0x1620,-1,-1,-1,0 
1,1,303,0,0,7256,.LEA.HI.X.SX32,7246,7247,4,2,1,0,0,0,6,0,3,0,-1,2,32,0,0,-1,0x1630,-1,-1,-1,0 
1,1,304,0,0,7264,.LEA,7246,7255,4,2,1,0,0,0,6,0,3,0,-1,2,32,0,0,-1,0x1640,-1,-1,-1,0 
1,1,305,0,0,7265,.LEA.HI.X,7255,7256,4,3,1,0,0,0,6,0,3,0,-1,2,32,0,0,-1,0x1650,-1,-1,-1,0 
1,1,306,0,0,7266,.IADD3,7255,7257,4,2,1,0,0,0,6,0,3,0,-1,2,32,0,0,-1,0x1660,-1,-1,-1,0 
1,1,307,0,0,7275,.IABS,7257,7266,4,1,1,0,0,0,6,0,3,0,-1,2,32,0,0,-1,0x1670,-1,-1,-1,0 
1,1,308,0,0,7284,.IMAD.WIDE.U32,7257,7275,4,3,1,0,0,0,6,0,3,0,-1,2,32,0,0,-1,0x1680,-1,-1,-1,0 
1,1,309,0,0,7293,.IMAD.MOV,7275,7284,4,3,1,0,0,0,6,0,3,0,-1,2,32,0,0,-1,0x1690,-1,-1,-1,0 
1,1,310,0,0,7302,.IMAD,7275,7293,4,3,1,0,0,0,6,0,3,0,-1,2,32,0,0,-1,0x16a0,-1,-1,-1,0 
1,1,311,0,0,7311,.ISETP.GT.U32.AND,7293,7302,4,2,0,0,0,0,6,0,3,0,-1,2,32,0,0,-1,0x16b0,-1,-1,-1,0 
1,1,299,0,0,7423,.LDG.E.SYS,7218,7227,1,1,1,1,0,4,8,0,6,0,-1,1,32,0,0,-1,0x15f0,-1,-1,-1,1 
1,1,312,0,0,7429,.STG.E.SYS,7293,7423,1,2,0,0,1,4,11,0,6,0,-1,1,32,0,0,-1,0x16c0,-1,-1,-1,1 
1,1,315,0,0,7435,.IMAD.IADD,7425,7426,4,2,1,0,0,0,6,0,3,0,-1,2,0,0,0,-1,0x16f0,-1,-1,-1,0 
1,1,316,0,0,7436,.ISETP.GE.AND,7425,7427,4,2,0,0,0,0,6,0,3,0,-1,2,32,0,0,-1,0x1700,-1,-1,-1,0 
1,1,317,0,0,7437,.LOP3.LUT,7427,7428,4,2,1,0,0,0,6,0,3,0,-1,2,32,0,0,-1,0x1710,-1,-1,-1,0 
1,1,318,0,0,7444,.IMAD.IADD,7427,7435,4,2,1,0,0,0,6,0,3,0,-1,2,32,0,0,-1,0x1720,-1,-1,-1,0 
1,1,319,0,0,7445,.ISETP.GE.U32.AND,7435,7436,4,2,0,0,0,0,6,0,3,0,-1,2,32,0,0,-1,0x1730,-1,-1,-1,0 
1,1,320,0,0,7446,.ISETP.GT.U32.AND,7435,7437,4,2,0,0,0,0,6,0,3,0,-1,2,32,0,0,-1,0x1740,-1,-1,-1,0 
1,1,321,0,0,7447,.ISETP.GE.AND,7437,7438,4,2,0,0,0,0,6,0,3,0,-1,2,32,0,0,-1,0x1750,-1,-1,-1,0 
1,1,322,0,0,7448,.IADD3,7437,7439,4,2,1,0,0,0,6,0,3,0,-1,2,32,0,0,-1,0x1760,-1,-1,-1,0 
1,1,313,0,0,7450,.LDG.E.SYS,7423,7424,1,1,1,1,0,4,8,0,6,0,-1,1,32,0,0,-1,0x16d0,-1,-1,-1,1 
1,1,314,0,0,7451,.LDG.E.SYS,7423,7425,1,1,1,1,0,4,8,0,6,0,-1,1,32,0,0,-1,0x16e0,-1,-1,-1,1 
1,1,323,0,0,7453,.SEL,7439,7444,4,2,1,0,0,0,1,0,3,0,-1,2,32,0,0,-1,0x1770,-1,-1,-1,0 
1,1,324,0,0,7457,.SEL,7439,7448,4,2,1,0,0,0,1,0,3,0,-1,2,32,0,0,-1,0x1780,-1,-1,-1,0 
1,1,325,0,0,7463,.IMAD.MOV,7448,7453,4,3,1,0,0,0,6,0,3,0,-1,2,0,0,0,-1,0x1790,-1,-1,-1,0 
1,1,326,0,0,7466,.IADD3,7448,7457,4,2,1,0,0,0,6,0,3,0,-1,2,0,0,0,-1,0x17a0,-1,-1,-1,0 
1,1,327,0,0,7472,.SEL,7457,7463,4,2,1,0,0,0,1,0,3,0,-1,2,32,0,0,-1,0x17b0,-1,-1,-1,0 
1,1,328,0,0,7475,.IMAD.MOV,7457,7466,4,3,1,0,0,0,6,0,3,0,-1,2,0,0,0,-1,0x17c0,-1,-1,-1,0 
1,1,329,0,0,7481,.ISETP.NE.AND,7466,7472,4,2,0,0,0,0,6,0,3,0,-1,2,32,0,0,-1,0x17d0,-1,-1,-1,0 
1,1,330,0,0,7484,.SEL,7466,7475,4,2,1,0,0,0,1,0,3,0,-1,2,32,0,0,-1,0x17e0,-1,-1,-1,0 
1,1,331,0,0,7485,.SEL,7475,7476,4,1,1,0,0,0,1,0,3,0,-1,2,32,0,0,-1,0x17f0,-1,-1,-1,0 
1,1,332,0,0,7493,.IADD3,7475,7484,4,2,1,0,0,0,6,0,3,0,-1,2,32,0,0,-1,0x1800,-1,-1,-1,0 
1,1,333,0,0,7502,.IMAD.MOV,7484,7493,4,3,1,0,0,0,6,0,3,0,-1,2,32,0,0,-1,0x1810,-1,-1,-1,0 
1,1,334,0,0,7511,.IADD3,7484,7502,4,2,1,0,0,0,6,0,3,0,-1,2,32,0,0,-1,0x1820,-1,-1,-1,0 
1,1,335,0,0,7512,.IADD3,7502,7503,4,2,1,0,0,0,6,0,3,0,-1,2,32,0,0,-1,0x1830,-1,-1,-1,0 
1,1,336,0,0,7521,.IMAD,7502,7512,4,2,1,0,0,0,6,0,3,0,-1,2,32,0,0,-1,0x1840,-1,-1,-1,0 
1,1,337,0,0,7530,.IMAD.WIDE,7512,7521,4,2,1,0,0,0,6,0,3,0,-1,2,32,0,0,-1,0x1850,-1,-1,-1,0 
1,1,339,0,0,7540,.IMAD,7530,7531,4,2,1,0,0,0,6,0,3,0,-1,2,32,0,0,-1,0x1870,-1,-1,-1,0 
1,1,340,0,0,7541,.IADD3,7530,7532,4,2,1,0,0,0,6,0,3,0,-1,2,32,0,0,-1,0x1880,-1,-1,-1,0 
1,1,341,0,0,7549,.IADD3,7532,7540,4,2,1,0,0,0,6,0,3,0,-1,2,32,0,0,-1,0x1890,-1,-1,-1,0 
1,1,342,0,0,7558,.IADD3,7532,7549,4,3,1,0,0,0,6,0,3,0,-1,2,32,0,0,-1,0x18a0,-1,-1,-1,0 
1,1,343,0,0,7559,.LEA.HI.X.SX32,7549,7550,4,2,1,0,0,0,6,0,3,0,-1,2,32,0,0,-1,0x18b0,-1,-1,-1,0 
1,1,344,0,0,7567,.LEA,7549,7558,4,2,1,0,0,0,6,0,3,0,-1,2,32,0,0,-1,0x18c0,-1,-1,-1,0 
1,1,345,0,0,7568,.LEA.HI.X,7558,7559,4,3,1,0,0,0,6,0,3,0,-1,2,32,0,0,-1,0x18d0,-1,-1,-1,0 
1,1,346,0,0,7569,.ISETP.GE.AND,7558,7560,4,1,0,0,0,0,6,0,3,0,-1,2,32,0,0,-1,0x18e0,-1,-1,-1,0 
1,1,338,0,0,7726,.LDG.E.SYS,7512,7530,1,1,1,1,0,4,8,0,6,0,-1,1,32,0,0,-1,0x1860,-1,-1,-1,1 
1,1,347,0,0,7732,.STG.E.SYS,7560,7726,1,2,0,0,1,4,11,0,6,0,-1,1,32,0,0,-1,0x18f0,-1,-1,-1,1 
1,1,348,0,0,7735,.BRA,7560,7727,4,0,0,0,0,0,100,0,7,0,-1,4,0,0,0,-1,0x1900,-1,-1,-1,0 
1,1,349,0,0,7736,.BSYNC,7727,7728,4,0,0,0,0,0,100,0,7,0,-1,4,32,0,0,-1,0x1910,-1,-1,-1,0 
1,1,350,0,0,7738,.ISETP.NE.AND,7727,7729,4,1,0,0,0,0,6,0,3,0,-1,2,32,0,0,-1,0x1920,-1,-1,-1,0 
1,1,352,0,0,7739,.BRA,7729,7731,4,0,0,0,0,0,100,0,7,0,-1,4,32,0,0,-1,0x1940,-1,-1,-1,0 
1,1,351,0,0,7740,.IMAD.MOV.U32,7729,7730,4,3,1,0,0,0,6,0,3,0,-1,2,32,0,0,-1,0x1930,-1,-1,-1,0 
1,1,353,0,0,7749,.IMAD.WIDE,7731,7740,4,2,1,0,0,0,6,0,3,0,-1,2,32,0,0,-1,0x1ded0,-1,-1,-1,0 
1,1,354,0,0,7750,.SHF.R.U32.HI,7731,7741,4,2,1,0,0,0,6,0,3,0,-1,2,32,0,0,-1,0x1dee0,-1,-1,-1,0 
1,1,355,0,0,7759,.LEA.HI.SX32,7741,7750,4,2,1,0,0,0,6,0,3,0,-1,2,32,0,0,-1,0x1def0,-1,-1,-1,0 
1,1,356,0,0,7768,.IMAD,7741,7759,4,2,1,0,0,0,6,0,3,0,-1,2,32,0,0,-1,0x1df00,-1,-1,-1,0 
1,1,359,0,0,7775,.EXIT,7769,7770,1,0,0,0,0,0,17,0,3,0,-1,1,32,0,0,-1,0x1df30,-1,-1,-1,0 
1,1,357,0,0,7777,.ISETP.NE.AND,7759,7768,4,2,0,0,0,0,6,0,3,0,-1,2,32,0,0,-1,0x1df10,-1,-1,-1,0 
1,1,358,0,0,7778,.ISETP.NE.AND,7759,7769,4,2,0,0,0,0,6,0,3,0,-1,2,32,0,0,-1,0x1df20,-1,-1,-1,0 
Destroy streams for kernel 1: size 0


gpgpu_simulation_time = 0 days, 0 hrs, 0 min, 1 sec (1 sec)
gpgpu_simulation_rate = 10031 (inst/sec)
gpgpu_simulation_rate = 7920 (cycle/sec)
gpgpu_silicon_slowdown = 142929x
GPGPU-Sim: *** simulation thread exiting ***
GPGPU-Sim: *** exit detected ***
