

        *** GPGPU-Sim Simulator Version 4.0.0  [build gpgpu-sim_git-commit-90ec3399763d7c8512cfe7dc193473086c38ca38_modified_14.0] ***


addr_dec_mask[CHIP]  = 0000000000001f00 	high:13 low:8
addr_dec_mask[BK]    = 00000000000e2000 	high:20 low:13
addr_dec_mask[ROW]   = 00000001fff00000 	high:33 low:20
addr_dec_mask[COL]   = 000000000001c0ff 	high:17 low:0
addr_dec_mask[BURST] = 000000000000001f 	high:5 low:0
sub_partition_id_mask = 0000000000002000
GPGPU-Sim uArch: clock freqs: 1132000000.000000:1132000000.000000:1132000000.000000:850000000.000000
GPGPU-Sim uArch: clock periods: 0.00000000088339222615:0.00000000088339222615:0.00000000088339222615:0.00000000117647058824
GPGPU-Sim uArch: performance model initialization complete.
launching memcpy command : MemcpyHtoD,0x00007f698b700000,3600
launching memcpy command : MemcpyHtoD,0x00007f698b701000,3600
-kernel name = _Z14calculate_tempiPfS_iiiiffffff
-kernel id = 1
-grid dim = (8,8,1)
-block dim = (16,16,1)
-shmem = 3072
-nregs = 35
-binary version = 70
-cuda stream id = 0
-shmem base_addr = 0x00007f69c0000000
-local mem base_addr = 0x00007f69c2000000
-nvbit version = 1.4
-accelsim tracer version = 3
launching kernel command : /scratch/santosh/gpu_simulation/accel-sim-framework/traces/rodinia_2.0-ft/11.0/hotspot-rodinia-2.0-ft/30_6_40___data_result_30_6_40_txt/traces/kernel-1.traceg
GPGPU-Sim uArch: Shader 0 bind to kernel 1 '_Z14calculate_tempiPfS_iiiiffffff'
GPGPU-Sim uArch: CTA/core = 32, limited by: shmem cta_limit
GPGPU-Sim: Reconfigure L1 cache to 120KB
GPGPUsim: cta_size: 32
ctaid: 0, start warp: 0, end_warp: 1, start_thread: 0, end_thread: 32
thread block = 0,0,0
warp id: 0
warp id: 1
warp_id: 0, insts: 279
1,1,1,0,0,5011,.IMAD.MOV.U32,5001,5002,4,2,1,0,0,0,6,0,3,0,-1,2,32,0,0,-1,0,-1,-1,-1,0 
1,1,3,0,0,5012,.S2R,5003,5004,4,0,1,0,0,0,1,0,3,0,-1,2,32,0,0,-1,0x20,-1,-1,-1,0 
1,1,2,0,0,5013,.SHFL.IDX,5001,5003,4,4,0,0,0,0,1,0,3,0,-1,2,0,0,0,-1,0x10,-1,-1,-1,0 
1,1,4,0,0,5014,.IMAD.MOV,5003,5005,4,2,1,0,0,0,6,0,3,0,-1,2,32,0,0,-1,0x30,-1,-1,-1,0 
1,1,5,0,0,5015,.IMAD.MOV.U32,5005,5006,4,2,1,0,0,0,6,0,3,0,-1,2,32,0,0,-1,0x40,-1,-1,-1,0 
1,1,6,0,0,5015,.S2R,5005,5007,4,0,1,0,0,0,1,0,3,0,-1,2,32,0,0,-1,0x50,-1,-1,-1,0 
1,1,7,0,0,5017,.IMAD.MOV.U32,5007,5008,4,2,1,0,0,0,6,0,3,0,-1,2,32,0,0,-1,0x60,-1,-1,-1,0 
1,1,8,0,0,5023,.LEA,5007,5014,4,1,1,0,0,0,6,0,3,0,-1,2,32,0,0,-1,0x70,-1,-1,-1,0 
1,1,9,0,0,5023,.S2R,5014,5015,4,0,1,0,0,0,1,0,3,0,-1,2,32,0,0,-1,0x80,-1,-1,-1,0 
1,1,10,0,0,5025,.IADD3,5014,5016,4,2,1,0,0,0,6,0,3,0,-1,2,32,0,0,-1,0x90,-1,-1,-1,0 
1,1,11,0,0,5026,.IADD3,5016,5017,4,2,1,0,0,0,6,0,3,0,-1,2,32,0,0,-1,0xa0,-1,-1,-1,0 
1,1,12,0,0,5026,.S2R,5016,5018,4,0,1,0,0,0,1,0,3,0,-1,2,32,0,0,-1,0xb0,-1,-1,-1,0 
1,1,13,0,0,5032,.IMAD,5018,5023,4,2,1,0,0,0,6,0,3,0,-1,2,32,0,0,-1,0xc0,-1,-1,-1,0 
1,1,14,0,0,5033,.IMAD,5018,5024,4,2,1,0,0,0,6,0,3,0,-1,2,32,0,0,-1,0xd0,-1,-1,-1,0 
1,1,15,0,0,5041,.IMAD.IADD,5024,5032,4,2,1,0,0,0,6,0,3,0,-1,2,32,0,0,-1,0xe0,-1,-1,-1,0 
1,1,16,0,0,5042,.IMAD.IADD,5024,5033,4,2,1,0,0,0,6,0,3,0,-1,2,32,0,0,-1,0xf0,-1,-1,-1,0 
1,1,17,0,0,5050,.ISETP.GT.AND,5033,5041,4,2,0,0,0,0,6,0,3,0,-1,2,32,0,0,-1,0x100,-1,-1,-1,0 
1,1,18,0,0,5051,.ISETP.GT.AND,5033,5042,4,2,0,0,0,0,6,0,3,0,-1,2,32,0,0,-1,0x110,-1,-1,-1,0 
1,1,19,0,0,5052,.ISETP.GT.AND,5042,5043,4,1,0,0,0,0,6,0,3,0,-1,2,32,0,0,-1,0x120,-1,-1,-1,0 
1,1,20,0,0,5053,.IMAD,5042,5044,4,2,1,0,0,0,6,0,3,0,-1,2,32,0,0,-1,0x130,-1,-1,-1,0 
1,1,21,0,0,5054,.ISETP.GT.AND,5044,5045,4,1,0,0,0,0,6,0,3,0,-1,2,32,0,0,-1,0x140,-1,-1,-1,0 
1,1,22,0,0,5062,.IMAD.WIDE,5044,5053,4,2,1,0,0,0,6,0,3,0,-1,2,32,0,0,-1,0x150,-1,-1,-1,0 
1,1,23,0,0,5062,.PLOP3.LUT,5053,5054,4,0,0,0,0,0,1,0,3,0,-1,2,32,0,0,-1,0x160,-1,-1,-1,0 
1,1,24,0,0,5064,.IMAD.WIDE,5053,5055,4,2,1,0,0,0,6,0,3,0,-1,2,0,0,0,-1,0x170,-1,-1,-1,0 
1,1,25,0,0,5065,.LDG.E.SYS,5055,5062,1,1,1,1,0,4,8,0,6,0,-1,1,0,0,0,-1,0x180,-1,-1,-1,1 
1,1,26,0,0,5067,.LDG.E.SYS,5055,5064,1,1,1,1,0,4,8,0,6,0,-1,1,0,0,0,-1,0x190,-1,-1,-1,1 
1,1,27,0,0,5074,.IMAD.MOV.U32,5064,5065,4,2,1,0,0,0,6,0,3,0,-1,2,32,0,0,-1,0x1a0,-1,-1,-1,0 
1,1,28,0,0,5075,.IADD3,5064,5066,4,2,1,0,0,0,6,0,3,0,-1,2,32,0,0,-1,0x1b0,-1,-1,-1,0 
1,1,29,0,0,5076,.IMAD.SHL.U32,5066,5067,4,2,1,0,0,0,6,0,3,0,-1,2,32,0,0,-1,0x1c0,-1,-1,-1,0 
1,1,30,0,0,5077,.IADD3,5066,5068,4,2,1,0,0,0,6,0,3,0,-1,2,32,0,0,-1,0x1d0,-1,-1,-1,0 
1,1,31,0,0,5078,.IMAD.SHL.U32,5068,5069,4,2,1,0,0,0,6,0,3,0,-1,2,32,0,0,-1,0x1e0,-1,-1,-1,0 
1,1,32,0,0,5083,.ISETP.LE.AND,5068,5074,4,1,0,0,0,0,6,0,3,0,-1,2,32,0,0,-1,0x1f0,-1,-1,-1,0 
1,1,33,0,0,5084,.IADD3,5074,5075,4,2,1,0,0,0,6,0,3,0,-1,2,32,0,0,-1,0x200,-1,-1,-1,0 
1,1,34,0,0,5087,.IMAD.IADD,5074,5078,4,2,1,0,0,0,6,0,3,0,-1,2,32,0,0,-1,0x210,-1,-1,-1,0 
1,1,35,0,0,5088,.IADD3,5078,5079,4,2,1,0,0,0,6,0,3,0,-1,2,32,0,0,-1,0x220,-1,-1,-1,0 
1,1,36,0,0,5093,.IADD3,5078,5084,4,2,1,0,0,0,6,0,3,0,-1,2,32,0,0,-1,0x230,-1,-1,-1,0 
1,1,37,0,0,5094,.IADD3,5084,5085,4,2,1,0,0,0,6,0,3,0,-1,2,32,0,0,-1,0x240,-1,-1,-1,0 
1,1,38,0,0,5095,.ISETP.GT.AND,5084,5086,4,2,0,0,0,0,6,0,3,0,-1,2,32,0,0,-1,0x250,-1,-1,-1,0 
1,1,40,0,0,5097,.STS,5086,5094,1,2,0,0,1,4,11,0,6,0,-1,1,0,0,0,-1,0x270,-1,-1,-1,0 
1,1,41,0,0,5098,.STS,5094,5095,1,2,0,0,1,4,11,0,6,0,-1,1,0,0,0,-1,0x280,-1,-1,-1,0 
1,1,39,0,0,5102,.IADD3,5086,5093,4,2,1,0,0,0,6,0,3,0,-1,2,32,0,0,-1,0x260,-1,-1,-1,0 
1,1,43,0,0,5102,.BAR.SYNC,5096,5097,1,0,0,0,0,0,13,0,3,0,-1,1,32,0,0,-1,0x2a0,1,-1,-1,0 
1,1,42,0,0,5104,.NOP,5094,5096,4,0,0,0,0,0,1,0,3,0,-1,2,32,0,0,-1,0x290,-1,-1,-1,0 
1,1,44,0,0,5107,.ISETP.GT.AND,5096,5098,4,2,0,0,0,0,6,0,3,0,-1,2,32,0,0,-1,0x2b0,-1,-1,-1,0 
1,1,45,0,0,5108,.IADD3,5098,5099,4,2,1,0,0,0,6,0,3,0,-1,2,32,0,0,-1,0x2c0,-1,-1,-1,0 
1,1,46,0,0,5111,.SEL,5098,5102,4,1,1,0,0,0,1,0,3,0,-1,2,32,0,0,-1,0x2d0,-1,-1,-1,0 
1,1,47,0,0,5117,.SEL,5102,5108,4,1,1,0,0,0,1,0,3,0,-1,2,32,0,0,-1,0x2e0,-1,-1,-1,0 
1,1,48,0,0,5117,.BRA,5102,5109,4,0,0,0,0,0,100,0,7,0,-1,4,0,0,0,-1,0x2f0,-1,-1,-1,0 
1,1,49,0,0,5120,.IMAD.MOV,5109,5110,4,3,1,0,0,0,6,0,3,0,-1,2,32,0,0,-1,0x300,-1,-1,-1,0 
1,1,50,0,0,5121,.SHF.R.S32.HI,5109,5111,4,2,1,0,0,0,6,0,3,0,-1,2,32,0,0,-1,0x310,-1,-1,-1,0 
1,1,51,0,0,5122,.IMAD.MOV,5111,5112,4,3,1,0,0,0,6,0,3,0,-1,2,32,0,0,-1,0x320,-1,-1,-1,0 
1,1,52,0,0,5122,.SHF.R.S32.HI,5111,5113,4,2,1,0,0,0,6,0,3,0,-1,2,32,0,0,-1,0x330,-1,-1,-1,0 
1,1,53,0,0,5124,.IMAD.MOV.U32,5113,5114,4,3,1,0,0,0,6,0,3,0,-1,2,32,0,0,-1,0x340,-1,-1,-1,0 
1,1,54,0,0,5130,.LOP3.LUT,5113,5121,4,3,1,0,0,0,6,0,3,0,-1,2,32,0,0,-1,0x350,-1,-1,-1,0 
1,1,55,0,0,5131,.LOP3.LUT,5121,5122,4,3,1,0,0,0,6,0,3,0,-1,2,32,0,0,-1,0x360,-1,-1,-1,0 
1,1,56,0,0,5131,.MOV,5121,5123,4,0,1,0,0,0,1,0,3,0,-1,2,32,0,0,-1,0x370,-1,-1,-1,0 
1,1,57,0,0,5132,.CALL.REL.NOINC,5123,5124,4,0,0,0,0,0,100,0,7,0,-1,4,32,0,0,-1,0x380,-1,-1,-1,0 
1,1,58,0,0,5135,.SHFL.IDX,5123,5125,4,4,0,0,0,0,1,0,3,0,-1,2,0,0,0,-1,0xe90,-1,-1,-1,0 
1,1,59,0,0,5136,.IMAD.MOV.U32,5125,5126,4,2,1,0,0,0,6,0,3,0,-1,2,32,0,0,-1,0xea0,-1,-1,-1,0 
1,1,60,0,0,5145,.FCHK,5125,5136,4,1,0,0,0,0,5,0,1,0,-1,2,32,0,0,-1,0xeb0,-1,-1,-1,0 
1,1,61,0,0,5145,.BRA,5136,5137,4,0,0,0,0,0,100,0,7,0,-1,4,0,0,0,-1,0xec0,-1,-1,-1,0 
1,1,63,0,0,5148,.FADD.FTZ,5138,5139,4,1,1,0,0,0,5,0,1,0,-1,2,32,0,0,-1,0xee0,-1,-1,-1,0 
1,1,62,0,0,5162,.MUFU.RCP,5136,5138,20,0,1,0,0,0,2,0,4,0,-1,8,32,0,0,-1,0xed0,-1,-1,-1,0 
1,1,64,0,0,5171,.FFMA,5138,5162,4,2,1,0,0,0,5,0,1,0,-1,2,32,0,0,-1,0xef0,-1,-1,-1,0 
1,1,65,0,0,5180,.FFMA,5162,5171,4,3,1,0,0,0,5,0,1,0,-1,2,32,0,0,-1,0xf00,-1,-1,-1,0 
1,1,66,0,0,5189,.FFMA,5162,5180,4,2,1,0,0,0,5,0,1,0,-1,2,32,0,0,-1,0xf10,-1,-1,-1,0 
1,1,67,0,0,5198,.FFMA,5180,5189,4,2,1,0,0,0,5,0,1,0,-1,2,32,0,0,-1,0xf20,-1,-1,-1,0 
1,1,68,0,0,5207,.FFMA,5180,5198,4,3,1,0,0,0,5,0,1,0,-1,2,32,0,0,-1,0xf30,-1,-1,-1,0 
1,1,69,0,0,5208,.IMAD.MOV.U32,5198,5199,4,2,1,0,0,0,6,0,3,0,-1,2,32,0,0,-1,0xf40,-1,-1,-1,0 
1,1,70,0,0,5216,.FFMA,5198,5207,4,2,1,0,0,0,5,0,1,0,-1,2,32,0,0,-1,0xf50,-1,-1,-1,0 
1,1,71,0,0,5225,.FFMA,5207,5216,4,3,1,0,0,0,5,0,1,0,-1,2,32,0,0,-1,0xf60,-1,-1,-1,0 
1,1,72,0,0,5225,.RET.REL.NODEC,5207,5217,4,0,1,0,0,0,100,0,7,0,-1,4,32,0,0,-1,0xf70,-1,-1,-1,0 
1,1,73,0,0,5227,.IMAD.MOV.U32,5217,5218,4,2,1,0,0,0,6,0,3,0,-1,2,32,0,0,-1,0x390,-1,-1,-1,0 
1,1,74,0,0,5228,.IADD3,5217,5219,4,2,1,0,0,0,6,0,3,0,-1,2,32,0,0,-1,0x3a0,-1,-1,-1,0 
1,1,75,0,0,5229,.ISETP.GE.AND,5219,5220,4,2,0,0,0,0,6,0,3,0,-1,2,32,0,0,-1,0x3b0,-1,-1,-1,0 
1,1,76,0,0,5236,.IADD3,5219,5227,4,2,1,0,0,0,6,0,3,0,-1,2,32,0,0,-1,0x3c0,-1,-1,-1,0 
1,1,77,0,0,5237,.IADD3,5227,5228,4,2,1,0,0,0,6,0,3,0,-1,2,32,0,0,-1,0x3d0,-1,-1,-1,0 
1,1,78,0,0,5245,.LOP3.LUT,5227,5236,4,2,1,0,0,0,6,0,3,0,-1,2,32,0,0,-1,0x3e0,-1,-1,-1,0 
1,1,79,0,0,5246,.F2F.F64.F32,5236,5237,4,1,1,0,0,0,1,0,3,0,-1,2,32,0,0,-1,0x3f0,-1,-1,-1,0 
1,1,80,0,0,5247,.ISETP.LT.AND,5236,5238,4,2,0,0,0,0,6,0,3,0,-1,2,32,0,0,-1,0x400,-1,-1,-1,0 
1,1,81,0,0,5254,.ISETP.GT.U32.AND,5238,5245,4,1,0,0,0,0,6,0,3,0,-1,2,32,0,0,-1,0x410,-1,-1,-1,0 
1,1,82,0,0,5255,.SEL,5238,5246,4,2,1,0,0,0,1,0,3,0,-1,2,32,0,0,-1,0x420,-1,-1,-1,0 
1,1,83,0,0,5256,.SEL,5246,5247,4,2,1,0,0,0,1,0,3,0,-1,2,32,0,0,-1,0x430,-1,-1,-1,0 
1,1,84,0,0,5264,.IMAD,5246,5255,4,2,1,0,0,0,6,0,3,0,-1,2,32,0,0,-1,0x440,-1,-1,-1,0 
1,1,85,0,0,5265,.IMAD,5255,5256,4,2,1,0,0,0,6,0,3,0,-1,2,32,0,0,-1,0x450,-1,-1,-1,0 
1,1,86,0,0,5265,.BRA,5255,5257,4,0,0,0,0,0,100,0,7,0,-1,4,32,0,0,-1,0x460,-1,-1,-1,0 
1,1,87,0,0,5282,.MUFU.RCP,5257,5258,20,0,1,0,0,0,2,0,4,0,-1,8,32,0,0,-1,0x4c0,-1,-1,-1,0 
1,1,88,0,0,5291,.FFMA,5257,5282,4,2,1,0,0,0,5,0,1,0,-1,2,32,0,0,-1,0x4d0,-1,-1,-1,0 
1,1,89,0,0,5300,.FADD.FTZ,5282,5291,4,2,1,0,0,0,5,0,1,0,-1,2,32,0,0,-1,0x4e0,-1,-1,-1,0 
1,1,90,0,0,5309,.FFMA,5282,5300,4,3,1,0,0,0,5,0,1,0,-1,2,32,0,0,-1,0x4f0,-1,-1,-1,0 
1,1,91,0,0,5310,.IMAD.MOV.U32,5300,5301,4,2,1,0,0,0,6,0,3,0,-1,2,32,0,0,-1,0x500,-1,-1,-1,0 
1,1,92,0,0,5311,.IADD3,5300,5302,4,2,1,0,0,0,6,0,3,0,-1,2,32,0,0,-1,0x510,-1,-1,-1,0 
1,1,93,0,0,5312,.ISETP.GE.AND,5302,5303,4,2,0,0,0,0,6,0,3,0,-1,2,32,0,0,-1,0x520,-1,-1,-1,0 
1,1,94,0,0,5319,.IADD3,5302,5310,4,2,1,0,0,0,6,0,3,0,-1,2,32,0,0,-1,0x530,-1,-1,-1,0 
1,1,95,0,0,5320,.IADD3,5310,5311,4,2,1,0,0,0,6,0,3,0,-1,2,32,0,0,-1,0x540,-1,-1,-1,0 
1,1,96,0,0,5328,.LOP3.LUT,5310,5319,4,2,1,0,0,0,6,0,3,0,-1,2,32,0,0,-1,0x550,-1,-1,-1,0 
1,1,97,0,0,5329,.F2F.F64.F32,5319,5320,4,1,1,0,0,0,1,0,3,0,-1,2,32,0,0,-1,0x560,-1,-1,-1,0 
1,1,98,0,0,5330,.ISETP.LT.AND,5319,5321,4,2,0,0,0,0,6,0,3,0,-1,2,32,0,0,-1,0x570,-1,-1,-1,0 
1,1,99,0,0,5337,.ISETP.GT.U32.AND,5321,5328,4,1,0,0,0,0,6,0,3,0,-1,2,32,0,0,-1,0x580,-1,-1,-1,0 
1,1,100,0,0,5338,.SEL,5321,5329,4,2,1,0,0,0,1,0,3,0,-1,2,32,0,0,-1,0x590,-1,-1,-1,0 
1,1,101,0,0,5339,.SEL,5329,5330,4,2,1,0,0,0,1,0,3,0,-1,2,32,0,0,-1,0x5a0,-1,-1,-1,0 
1,1,102,0,0,5347,.IMAD,5329,5338,4,2,1,0,0,0,6,0,3,0,-1,2,32,0,0,-1,0x5b0,-1,-1,-1,0 
1,1,103,0,0,5348,.IMAD,5338,5339,4,2,1,0,0,0,6,0,3,0,-1,2,32,0,0,-1,0x5c0,-1,-1,-1,0 
1,1,104,0,0,5348,.BRA,5338,5340,4,0,0,0,0,0,100,0,7,0,-1,4,32,0,0,-1,0x5d0,-1,-1,-1,0 
1,1,105,0,0,5365,.MUFU.RCP,5340,5341,20,0,1,0,0,0,2,0,4,0,-1,8,32,0,0,-1,0x630,-1,-1,-1,0 
1,1,106,0,0,5374,.FFMA,5340,5365,4,2,1,0,0,0,5,0,1,0,-1,2,32,0,0,-1,0x640,-1,-1,-1,0 
1,1,107,0,0,5383,.FADD.FTZ,5365,5374,4,2,1,0,0,0,5,0,1,0,-1,2,32,0,0,-1,0x650,-1,-1,-1,0 
1,1,108,0,0,5392,.FFMA,5365,5383,4,3,1,0,0,0,5,0,1,0,-1,2,32,0,0,-1,0x660,-1,-1,-1,0 
1,1,109,0,0,5393,.IMAD.MOV.U32,5383,5384,4,2,1,0,0,0,6,0,3,0,-1,2,32,0,0,-1,0x670,-1,-1,-1,0 
1,1,110,0,0,5394,.ISETP.GT.AND,5383,5385,4,2,0,0,0,0,6,0,3,0,-1,2,32,0,0,-1,0x680,-1,-1,-1,0 
1,1,111,0,0,5395,.IMAD.MOV.U32,5385,5386,4,2,1,0,0,0,6,0,3,0,-1,2,32,0,0,-1,0x690,-1,-1,-1,0 
1,1,112,0,0,5396,.ISETP.GT.AND,5385,5387,4,2,0,0,0,0,6,0,3,0,-1,2,32,0,0,-1,0x6a0,-1,-1,-1,0 
1,1,113,0,0,5402,.IADD3,5387,5393,4,2,1,0,0,0,6,0,3,0,-1,2,32,0,0,-1,0x6b0,-1,-1,-1,0 
1,1,114,0,0,5403,.F2F.F64.F32,5387,5394,4,1,1,0,0,0,1,0,3,0,-1,2,32,0,0,-1,0x6c0,-1,-1,-1,0 
1,1,115,0,0,5404,.ISETP.LT.OR,5394,5395,4,2,0,0,0,0,6,0,3,0,-1,2,32,0,0,-1,0x6d0,-1,-1,-1,0 
1,1,116,0,0,5411,.LOP3.LUT,5394,5402,4,2,1,0,0,0,6,0,3,0,-1,2,32,0,0,-1,0x6e0,-1,-1,-1,0 
1,1,117,0,0,5412,.ISETP.LT.OR,5402,5403,4,2,0,0,0,0,6,0,3,0,-1,2,32,0,0,-1,0x6f0,-1,-1,-1,0 
1,1,118,0,0,5420,.ISETP.GT.U32.AND,5402,5411,4,1,0,0,0,0,6,0,3,0,-1,2,32,0,0,-1,0x700,-1,-1,-1,0 
1,1,119,0,0,5421,.IADD3,5411,5412,4,2,1,0,0,0,6,0,3,0,-1,2,32,0,0,-1,0x710,-1,-1,-1,0 
1,1,120,0,0,5421,.BRA,5411,5413,4,0,0,0,0,0,100,0,7,0,-1,4,32,0,0,-1,0x720,-1,-1,-1,0 
1,1,121,0,0,5438,.MUFU.RCP,5413,5414,20,0,1,0,0,0,2,0,4,0,-1,8,32,0,0,-1,0x780,-1,-1,-1,0 
1,1,122,0,0,5447,.FFMA,5413,5438,4,2,1,0,0,0,5,0,1,0,-1,2,32,0,0,-1,0x790,-1,-1,-1,0 
1,1,123,0,0,5456,.FADD.FTZ,5438,5447,4,2,1,0,0,0,5,0,1,0,-1,2,32,0,0,-1,0x7a0,-1,-1,-1,0 
1,1,124,0,0,5465,.FFMA,5438,5456,4,3,1,0,0,0,5,0,1,0,-1,2,32,0,0,-1,0x7b0,-1,-1,-1,0 
1,1,125,0,0,5467,.SHFL.IDX,5456,5457,4,4,0,0,0,0,1,0,3,0,-1,2,0,0,0,-1,0x7c0,-1,-1,-1,0 
1,1,127,0,0,5467,.BMOV.32.CLEAR,5458,5459,4,0,1,0,0,0,100,0,7,0,-1,4,32,0,0,-1,0x7e0,-1,-1,-1,0 
1,1,126,0,0,5468,.IADD3,5456,5458,4,2,1,0,0,0,6,0,3,0,-1,2,32,0,0,-1,0x7d0,-1,-1,-1,0 
1,1,128,0,0,5476,.IADD3,5458,5467,4,2,1,0,0,0,6,0,3,0,-1,2,32,0,0,-1,0x7f0,-1,-1,-1,0 
1,1,129,0,0,5476,.BSSY,5467,5468,4,0,0,0,0,0,100,0,7,0,-1,4,32,0,0,-1,0x800,-1,-1,-1,0 
1,1,130,0,0,5478,.ISETP.GT.AND,5467,5469,4,2,0,0,0,0,6,0,3,0,-1,2,32,0,0,-1,0x810,-1,-1,-1,0 
1,1,131,0,0,5485,.ISETP.GE.AND,5469,5476,4,2,0,0,0,0,6,0,3,0,-1,2,32,0,0,-1,0x820,-1,-1,-1,0 
1,1,132,0,0,5486,.ISETP.LT.OR,5469,5477,4,2,0,0,0,0,6,0,3,0,-1,2,32,0,0,-1,0x830,-1,-1,-1,0 
1,1,133,0,0,5487,.ISETP.LE.AND,5477,5478,4,2,0,0,0,0,6,0,3,0,-1,2,32,0,0,-1,0x840,-1,-1,-1,0 
1,1,134,0,0,5487,.PLOP3.LUT,5477,5479,4,0,0,0,0,0,1,0,3,0,-1,2,32,0,0,-1,0x850,-1,-1,-1,0 
1,1,135,0,0,5489,.PRMT,5479,5480,4,2,1,0,0,0,1,0,3,0,-1,2,32,0,0,-1,0x860,-1,-1,-1,0 
1,1,136,0,0,5489,.PLOP3.LUT,5479,5481,4,0,0,0,0,0,1,0,3,0,-1,2,32,0,0,-1,0x870,-1,-1,-1,0 
1,1,137,0,0,5490,.BRA,5481,5482,4,0,0,0,0,0,100,0,7,0,-1,4,32,0,0,-1,0x880,-1,-1,-1,0 
1,1,140,0,0,5490,.BAR.SYNC,5483,5485,1,0,0,0,0,0,13,0,3,0,-1,1,32,0,0,-1,0xa40,1,-1,-1,0 
1,1,138,0,0,5491,.BSYNC,5481,5483,4,0,0,0,0,0,100,0,7,0,-1,4,32,0,0,-1,0xa20,-1,-1,-1,0 
1,1,139,0,0,5492,.NOP,5483,5484,4,0,0,0,0,0,1,0,3,0,-1,2,32,0,0,-1,0xa30,-1,-1,-1,0 
1,1,141,0,0,5495,.ISETP.NE.AND,5485,5486,4,2,0,0,0,0,6,0,3,0,-1,2,32,0,0,-1,0xa50,-1,-1,-1,0 
1,1,142,0,0,5495,.BRA,5485,5487,4,0,0,0,0,0,100,0,7,0,-1,4,0,0,0,-1,0xa60,-1,-1,-1,0 
1,1,143,0,0,5498,.PRMT,5487,5489,4,2,1,0,0,0,1,0,3,0,-1,2,32,0,0,-1,0xa70,-1,-1,-1,0 
1,1,144,0,0,5499,.IADD3,5487,5490,4,2,1,0,0,0,6,0,3,0,-1,2,32,0,0,-1,0xa80,-1,-1,-1,0 
1,1,145,0,0,5507,.ISETP.NE.AND,5490,5498,4,2,0,0,0,0,6,0,3,0,-1,2,32,0,0,-1,0xa90,-1,-1,-1,0 
1,1,146,0,0,5523,.LDS.U,5490,5499,1,1,1,1,0,4,8,0,6,0,-1,1,0,0,0,-1,0xaa0,-1,-1,-1,0 
1,1,147,0,0,5526,.STS,5499,5523,1,2,0,0,1,4,11,0,6,0,-1,1,0,0,0,-1,0xab0,-1,-1,-1,0 
1,1,149,0,0,5530,.BAR.SYNC,5524,5525,1,0,0,0,0,0,13,0,3,0,-1,1,32,0,0,-1,0xad0,1,-1,-1,0 
1,1,148,0,0,5532,.NOP,5499,5524,4,0,0,0,0,0,1,0,3,0,-1,2,32,0,0,-1,0xac0,-1,-1,-1,0 
1,1,150,0,0,5535,.ISETP.GE.AND,5524,5526,4,1,0,0,0,0,6,0,3,0,-1,2,32,0,0,-1,0xae0,-1,-1,-1,0 
1,1,151,0,0,5535,.BRA,5526,5527,4,0,0,0,0,0,100,0,7,0,-1,4,32,0,0,-1,0xaf0,-1,-1,-1,0 
1,1,152,0,0,5538,.SHFL.IDX,5526,5528,4,4,0,0,0,0,1,0,3,0,-1,2,0,0,0,-1,0x7c0,-1,-1,-1,0 
1,1,154,0,0,5538,.BMOV.32.CLEAR,5528,5530,4,0,1,0,0,0,100,0,7,0,-1,4,32,0,0,-1,0x7e0,-1,-1,-1,0 
1,1,153,0,0,5539,.IADD3,5528,5529,4,2,1,0,0,0,6,0,3,0,-1,2,32,0,0,-1,0x7d0,-1,-1,-1,0 
1,1,155,0,0,5547,.IADD3,5530,5538,4,2,1,0,0,0,6,0,3,0,-1,2,32,0,0,-1,0x7f0,-1,-1,-1,0 
1,1,156,0,0,5547,.BSSY,5530,5539,4,0,0,0,0,0,100,0,7,0,-1,4,32,0,0,-1,0x800,-1,-1,-1,0 
1,1,157,0,0,5549,.ISETP.GT.AND,5539,5540,4,2,0,0,0,0,6,0,3,0,-1,2,32,0,0,-1,0x810,-1,-1,-1,0 
1,1,158,0,0,5556,.ISETP.GE.AND,5539,5547,4,2,0,0,0,0,6,0,3,0,-1,2,32,0,0,-1,0x820,-1,-1,-1,0 
1,1,159,0,0,5557,.ISETP.LT.OR,5547,5548,4,2,0,0,0,0,6,0,3,0,-1,2,32,0,0,-1,0x830,-1,-1,-1,0 
1,1,160,0,0,5558,.ISETP.LE.AND,5547,5549,4,2,0,0,0,0,6,0,3,0,-1,2,32,0,0,-1,0x840,-1,-1,-1,0 
1,1,161,0,0,5558,.PLOP3.LUT,5549,5550,4,0,0,0,0,0,1,0,3,0,-1,2,32,0,0,-1,0x850,-1,-1,-1,0 
1,1,162,0,0,5560,.PRMT,5549,5551,4,2,1,0,0,0,1,0,3,0,-1,2,32,0,0,-1,0x860,-1,-1,-1,0 
1,1,163,0,0,5560,.PLOP3.LUT,5551,5552,4,0,0,0,0,0,1,0,3,0,-1,2,32,0,0,-1,0x870,-1,-1,-1,0 
1,1,164,0,0,5561,.BRA,5551,5553,4,0,0,0,0,0,100,0,7,0,-1,4,32,0,0,-1,0x880,-1,-1,-1,0 
1,1,167,0,0,5561,.BAR.SYNC,5555,5556,1,0,0,0,0,0,13,0,3,0,-1,1,32,0,0,-1,0xa40,1,-1,-1,0 
1,1,165,0,0,5562,.BSYNC,5553,5554,4,0,0,0,0,0,100,0,7,0,-1,4,32,0,0,-1,0xa20,-1,-1,-1,0 
1,1,166,0,0,5563,.NOP,5553,5555,4,0,0,0,0,0,1,0,3,0,-1,2,32,0,0,-1,0xa30,-1,-1,-1,0 
1,1,168,0,0,5566,.ISETP.NE.AND,5555,5557,4,2,0,0,0,0,6,0,3,0,-1,2,32,0,0,-1,0xa50,-1,-1,-1,0 
1,1,169,0,0,5566,.BRA,5557,5558,4,0,0,0,0,0,100,0,7,0,-1,4,0,0,0,-1,0xa60,-1,-1,-1,0 
1,1,170,0,0,5569,.PRMT,5557,5560,4,2,1,0,0,0,1,0,3,0,-1,2,32,0,0,-1,0xa70,-1,-1,-1,0 
1,1,171,0,0,5570,.IADD3,5560,5561,4,2,1,0,0,0,6,0,3,0,-1,2,32,0,0,-1,0xa80,-1,-1,-1,0 
1,1,172,0,0,5578,.ISETP.NE.AND,5560,5569,4,2,0,0,0,0,6,0,3,0,-1,2,32,0,0,-1,0xa90,-1,-1,-1,0 
1,1,173,0,0,5594,.LDS.U,5569,5570,1,1,1,1,0,4,8,0,6,0,-1,1,0,0,0,-1,0xaa0,-1,-1,-1,0 
1,1,174,0,0,5597,.STS,5569,5594,1,2,0,0,1,4,11,0,6,0,-1,1,0,0,0,-1,0xab0,-1,-1,-1,0 
1,1,176,0,0,5601,.BAR.SYNC,5594,5596,1,0,0,0,0,0,13,0,3,0,-1,1,32,0,0,-1,0xad0,1,-1,-1,0 
1,1,175,0,0,5603,.NOP,5594,5595,4,0,0,0,0,0,1,0,3,0,-1,2,32,0,0,-1,0xac0,-1,-1,-1,0 
1,1,177,0,0,5606,.ISETP.GE.AND,5596,5597,4,1,0,0,0,0,6,0,3,0,-1,2,32,0,0,-1,0xae0,-1,-1,-1,0 
1,1,178,0,0,5606,.BRA,5596,5598,4,0,0,0,0,0,100,0,7,0,-1,4,32,0,0,-1,0xaf0,-1,-1,-1,0 
1,1,179,0,0,5609,.SHFL.IDX,5598,5599,4,4,0,0,0,0,1,0,3,0,-1,2,0,0,0,-1,0x7c0,-1,-1,-1,0 
1,1,181,0,0,5609,.BMOV.32.CLEAR,5600,5601,4,0,1,0,0,0,100,0,7,0,-1,4,32,0,0,-1,0x7e0,-1,-1,-1,0 
1,1,180,0,0,5610,.IADD3,5598,5600,4,2,1,0,0,0,6,0,3,0,-1,2,32,0,0,-1,0x7d0,-1,-1,-1,0 
1,1,182,0,0,5618,.IADD3,5600,5609,4,2,1,0,0,0,6,0,3,0,-1,2,32,0,0,-1,0x7f0,-1,-1,-1,0 
1,1,183,0,0,5618,.BSSY,5609,5610,4,0,0,0,0,0,100,0,7,0,-1,4,32,0,0,-1,0x800,-1,-1,-1,0 
1,1,184,0,0,5620,.ISETP.GT.AND,5609,5611,4,2,0,0,0,0,6,0,3,0,-1,2,32,0,0,-1,0x810,-1,-1,-1,0 
1,1,185,0,0,5627,.ISETP.GE.AND,5611,5618,4,2,0,0,0,0,6,0,3,0,-1,2,32,0,0,-1,0x820,-1,-1,-1,0 
1,1,186,0,0,5628,.ISETP.LT.OR,5611,5619,4,2,0,0,0,0,6,0,3,0,-1,2,32,0,0,-1,0x830,-1,-1,-1,0 
1,1,187,0,0,5629,.ISETP.LE.AND,5619,5620,4,2,0,0,0,0,6,0,3,0,-1,2,32,0,0,-1,0x840,-1,-1,-1,0 
1,1,188,0,0,5629,.PLOP3.LUT,5619,5621,4,0,0,0,0,0,1,0,3,0,-1,2,32,0,0,-1,0x850,-1,-1,-1,0 
1,1,189,0,0,5631,.PRMT,5621,5622,4,2,1,0,0,0,1,0,3,0,-1,2,32,0,0,-1,0x860,-1,-1,-1,0 
1,1,190,0,0,5631,.PLOP3.LUT,5621,5623,4,0,0,0,0,0,1,0,3,0,-1,2,32,0,0,-1,0x870,-1,-1,-1,0 
1,1,191,0,0,5632,.BRA,5623,5624,4,0,0,0,0,0,100,0,7,0,-1,4,32,0,0,-1,0x880,-1,-1,-1,0 
1,1,194,0,0,5632,.BAR.SYNC,5625,5627,1,0,0,0,0,0,13,0,3,0,-1,1,32,0,0,-1,0xa40,1,-1,-1,0 
1,1,192,0,0,5633,.BSYNC,5623,5625,4,0,0,0,0,0,100,0,7,0,-1,4,32,0,0,-1,0xa20,-1,-1,-1,0 
1,1,193,0,0,5634,.NOP,5625,5626,4,0,0,0,0,0,1,0,3,0,-1,2,32,0,0,-1,0xa30,-1,-1,-1,0 
1,1,195,0,0,5637,.ISETP.NE.AND,5627,5628,4,2,0,0,0,0,6,0,3,0,-1,2,32,0,0,-1,0xa50,-1,-1,-1,0 
1,1,196,0,0,5637,.BRA,5627,5629,4,0,0,0,0,0,100,0,7,0,-1,4,0,0,0,-1,0xa60,-1,-1,-1,0 
1,1,197,0,0,5640,.PRMT,5629,5631,4,2,1,0,0,0,1,0,3,0,-1,2,32,0,0,-1,0xa70,-1,-1,-1,0 
1,1,198,0,0,5641,.IADD3,5629,5632,4,2,1,0,0,0,6,0,3,0,-1,2,32,0,0,-1,0xa80,-1,-1,-1,0 
1,1,199,0,0,5649,.ISETP.NE.AND,5632,5640,4,2,0,0,0,0,6,0,3,0,-1,2,32,0,0,-1,0xa90,-1,-1,-1,0 
1,1,200,0,0,5665,.LDS.U,5632,5641,1,1,1,1,0,4,8,0,6,0,-1,1,0,0,0,-1,0xaa0,-1,-1,-1,0 
1,1,201,0,0,5668,.STS,5641,5665,1,2,0,0,1,4,11,0,6,0,-1,1,0,0,0,-1,0xab0,-1,-1,-1,0 
1,1,203,0,0,5672,.BAR.SYNC,5666,5667,1,0,0,0,0,0,13,0,3,0,-1,1,32,0,0,-1,0xad0,1,-1,-1,0 
1,1,202,0,0,5674,.NOP,5641,5666,4,0,0,0,0,0,1,0,3,0,-1,2,32,0,0,-1,0xac0,-1,-1,-1,0 
1,1,204,0,0,5677,.ISETP.GE.AND,5666,5668,4,1,0,0,0,0,6,0,3,0,-1,2,32,0,0,-1,0xae0,-1,-1,-1,0 
1,1,205,0,0,5677,.BRA,5668,5669,4,0,0,0,0,0,100,0,7,0,-1,4,32,0,0,-1,0xaf0,-1,-1,-1,0 
1,1,206,0,0,5680,.SHFL.IDX,5668,5670,4,4,0,0,0,0,1,0,3,0,-1,2,0,0,0,-1,0x7c0,-1,-1,-1,0 
1,1,208,0,0,5680,.BMOV.32.CLEAR,5670,5672,4,0,1,0,0,0,100,0,7,0,-1,4,32,0,0,-1,0x7e0,-1,-1,-1,0 
1,1,207,0,0,5681,.IADD3,5670,5671,4,2,1,0,0,0,6,0,3,0,-1,2,32,0,0,-1,0x7d0,-1,-1,-1,0 
1,1,209,0,0,5689,.IADD3,5672,5680,4,2,1,0,0,0,6,0,3,0,-1,2,32,0,0,-1,0x7f0,-1,-1,-1,0 
1,1,210,0,0,5689,.BSSY,5672,5681,4,0,0,0,0,0,100,0,7,0,-1,4,32,0,0,-1,0x800,-1,-1,-1,0 
1,1,211,0,0,5691,.ISETP.GT.AND,5681,5682,4,2,0,0,0,0,6,0,3,0,-1,2,32,0,0,-1,0x810,-1,-1,-1,0 
1,1,212,0,0,5698,.ISETP.GE.AND,5681,5689,4,2,0,0,0,0,6,0,3,0,-1,2,32,0,0,-1,0x820,-1,-1,-1,0 
1,1,213,0,0,5699,.ISETP.LT.OR,5689,5690,4,2,0,0,0,0,6,0,3,0,-1,2,32,0,0,-1,0x830,-1,-1,-1,0 
1,1,214,0,0,5700,.ISETP.LE.AND,5689,5691,4,2,0,0,0,0,6,0,3,0,-1,2,32,0,0,-1,0x840,-1,-1,-1,0 
1,1,215,0,0,5700,.PLOP3.LUT,5691,5692,4,0,0,0,0,0,1,0,3,0,-1,2,32,0,0,-1,0x850,-1,-1,-1,0 
1,1,216,0,0,5702,.PRMT,5691,5693,4,2,1,0,0,0,1,0,3,0,-1,2,32,0,0,-1,0x860,-1,-1,-1,0 
1,1,217,0,0,5702,.PLOP3.LUT,5693,5694,4,0,0,0,0,0,1,0,3,0,-1,2,32,0,0,-1,0x870,-1,-1,-1,0 
1,1,218,0,0,5703,.BRA,5693,5695,4,0,0,0,0,0,100,0,7,0,-1,4,32,0,0,-1,0x880,-1,-1,-1,0 
1,1,221,0,0,5703,.BAR.SYNC,5697,5698,1,0,0,0,0,0,13,0,3,0,-1,1,32,0,0,-1,0xa40,1,-1,-1,0 
1,1,219,0,0,5704,.BSYNC,5695,5696,4,0,0,0,0,0,100,0,7,0,-1,4,32,0,0,-1,0xa20,-1,-1,-1,0 
1,1,220,0,0,5705,.NOP,5695,5697,4,0,0,0,0,0,1,0,3,0,-1,2,32,0,0,-1,0xa30,-1,-1,-1,0 
1,1,222,0,0,5708,.ISETP.NE.AND,5697,5699,4,2,0,0,0,0,6,0,3,0,-1,2,32,0,0,-1,0xa50,-1,-1,-1,0 
1,1,223,0,0,5708,.BRA,5699,5700,4,0,0,0,0,0,100,0,7,0,-1,4,0,0,0,-1,0xa60,-1,-1,-1,0 
1,1,224,0,0,5711,.PRMT,5699,5702,4,2,1,0,0,0,1,0,3,0,-1,2,32,0,0,-1,0xa70,-1,-1,-1,0 
1,1,225,0,0,5712,.IADD3,5702,5703,4,2,1,0,0,0,6,0,3,0,-1,2,32,0,0,-1,0xa80,-1,-1,-1,0 
1,1,226,0,0,5720,.ISETP.NE.AND,5702,5711,4,2,0,0,0,0,6,0,3,0,-1,2,32,0,0,-1,0xa90,-1,-1,-1,0 
1,1,227,0,0,5736,.LDS.U,5711,5712,1,1,1,1,0,4,8,0,6,0,-1,1,0,0,0,-1,0xaa0,-1,-1,-1,0 
1,1,228,0,0,5739,.STS,5711,5736,1,2,0,0,1,4,11,0,6,0,-1,1,0,0,0,-1,0xab0,-1,-1,-1,0 
1,1,230,0,0,5743,.BAR.SYNC,5736,5738,1,0,0,0,0,0,13,0,3,0,-1,1,32,0,0,-1,0xad0,1,-1,-1,0 
1,1,229,0,0,5745,.NOP,5736,5737,4,0,0,0,0,0,1,0,3,0,-1,2,32,0,0,-1,0xac0,-1,-1,-1,0 
1,1,231,0,0,5748,.ISETP.GE.AND,5738,5739,4,1,0,0,0,0,6,0,3,0,-1,2,32,0,0,-1,0xae0,-1,-1,-1,0 
1,1,232,0,0,5748,.BRA,5738,5740,4,0,0,0,0,0,100,0,7,0,-1,4,32,0,0,-1,0xaf0,-1,-1,-1,0 
1,1,233,0,0,5751,.SHFL.IDX,5740,5741,4,4,0,0,0,0,1,0,3,0,-1,2,0,0,0,-1,0x7c0,-1,-1,-1,0 
1,1,235,0,0,5751,.BMOV.32.CLEAR,5742,5743,4,0,1,0,0,0,100,0,7,0,-1,4,32,0,0,-1,0x7e0,-1,-1,-1,0 
1,1,234,0,0,5752,.IADD3,5740,5742,4,2,1,0,0,0,6,0,3,0,-1,2,32,0,0,-1,0x7d0,-1,-1,-1,0 
1,1,236,0,0,5760,.IADD3,5742,5751,4,2,1,0,0,0,6,0,3,0,-1,2,32,0,0,-1,0x7f0,-1,-1,-1,0 
1,1,237,0,0,5760,.BSSY,5751,5752,4,0,0,0,0,0,100,0,7,0,-1,4,32,0,0,-1,0x800,-1,-1,-1,0 
1,1,238,0,0,5762,.ISETP.GT.AND,5751,5753,4,2,0,0,0,0,6,0,3,0,-1,2,32,0,0,-1,0x810,-1,-1,-1,0 
1,1,239,0,0,5769,.ISETP.GE.AND,5753,5760,4,2,0,0,0,0,6,0,3,0,-1,2,32,0,0,-1,0x820,-1,-1,-1,0 
1,1,240,0,0,5770,.ISETP.LT.OR,5753,5761,4,2,0,0,0,0,6,0,3,0,-1,2,32,0,0,-1,0x830,-1,-1,-1,0 
1,1,241,0,0,5771,.ISETP.LE.AND,5761,5762,4,2,0,0,0,0,6,0,3,0,-1,2,32,0,0,-1,0x840,-1,-1,-1,0 
1,1,242,0,0,5771,.PLOP3.LUT,5761,5763,4,0,0,0,0,0,1,0,3,0,-1,2,32,0,0,-1,0x850,-1,-1,-1,0 
1,1,243,0,0,5773,.PRMT,5763,5764,4,2,1,0,0,0,1,0,3,0,-1,2,32,0,0,-1,0x860,-1,-1,-1,0 
1,1,244,0,0,5773,.PLOP3.LUT,5763,5765,4,0,0,0,0,0,1,0,3,0,-1,2,32,0,0,-1,0x870,-1,-1,-1,0 
1,1,245,0,0,5774,.BRA,5765,5766,4,0,0,0,0,0,100,0,7,0,-1,4,32,0,0,-1,0x880,-1,-1,-1,0 
1,1,248,0,0,5774,.BAR.SYNC,5767,5769,1,0,0,0,0,0,13,0,3,0,-1,1,32,0,0,-1,0xa40,1,-1,-1,0 
1,1,246,0,0,5775,.BSYNC,5765,5767,4,0,0,0,0,0,100,0,7,0,-1,4,32,0,0,-1,0xa20,-1,-1,-1,0 
1,1,247,0,0,5776,.NOP,5767,5768,4,0,0,0,0,0,1,0,3,0,-1,2,32,0,0,-1,0xa30,-1,-1,-1,0 
1,1,249,0,0,5779,.ISETP.NE.AND,5769,5770,4,2,0,0,0,0,6,0,3,0,-1,2,32,0,0,-1,0xa50,-1,-1,-1,0 
1,1,250,0,0,5779,.BRA,5769,5771,4,0,0,0,0,0,100,0,7,0,-1,4,0,0,0,-1,0xa60,-1,-1,-1,0 
1,1,251,0,0,5782,.PRMT,5771,5773,4,2,1,0,0,0,1,0,3,0,-1,2,32,0,0,-1,0xa70,-1,-1,-1,0 
1,1,252,0,0,5783,.IADD3,5771,5774,4,2,1,0,0,0,6,0,3,0,-1,2,32,0,0,-1,0xa80,-1,-1,-1,0 
1,1,253,0,0,5791,.ISETP.NE.AND,5774,5782,4,2,0,0,0,0,6,0,3,0,-1,2,32,0,0,-1,0xa90,-1,-1,-1,0 
1,1,254,0,0,5807,.LDS.U,5774,5783,1,1,1,1,0,4,8,0,6,0,-1,1,0,0,0,-1,0xaa0,-1,-1,-1,0 
1,1,255,0,0,5810,.STS,5783,5807,1,2,0,0,1,4,11,0,6,0,-1,1,0,0,0,-1,0xab0,-1,-1,-1,0 
1,1,257,0,0,5814,.BAR.SYNC,5808,5809,1,0,0,0,0,0,13,0,3,0,-1,1,32,0,0,-1,0xad0,1,-1,-1,0 
1,1,256,0,0,5816,.NOP,5783,5808,4,0,0,0,0,0,1,0,3,0,-1,2,32,0,0,-1,0xac0,-1,-1,-1,0 
1,1,258,0,0,5819,.ISETP.GE.AND,5808,5810,4,1,0,0,0,0,6,0,3,0,-1,2,32,0,0,-1,0xae0,-1,-1,-1,0 
1,1,259,0,0,5819,.BRA,5810,5811,4,0,0,0,0,0,100,0,7,0,-1,4,32,0,0,-1,0xaf0,-1,-1,-1,0 
1,1,260,0,0,5822,.SHFL.IDX,5810,5812,4,4,0,0,0,0,1,0,3,0,-1,2,0,0,0,-1,0x7c0,-1,-1,-1,0 
1,1,262,0,0,5822,.BMOV.32.CLEAR,5812,5814,4,0,1,0,0,0,100,0,7,0,-1,4,32,0,0,-1,0x7e0,-1,-1,-1,0 
1,1,261,0,0,5823,.IADD3,5812,5813,4,2,1,0,0,0,6,0,3,0,-1,2,32,0,0,-1,0x7d0,-1,-1,-1,0 
1,1,263,0,0,5831,.IADD3,5814,5822,4,2,1,0,0,0,6,0,3,0,-1,2,32,0,0,-1,0x7f0,-1,-1,-1,0 
1,1,264,0,0,5831,.BSSY,5814,5823,4,0,0,0,0,0,100,0,7,0,-1,4,32,0,0,-1,0x800,-1,-1,-1,0 
1,1,265,0,0,5833,.ISETP.GT.AND,5823,5824,4,2,0,0,0,0,6,0,3,0,-1,2,32,0,0,-1,0x810,-1,-1,-1,0 
1,1,266,0,0,5840,.ISETP.GE.AND,5823,5831,4,2,0,0,0,0,6,0,3,0,-1,2,32,0,0,-1,0x820,-1,-1,-1,0 
1,1,267,0,0,5841,.ISETP.LT.OR,5831,5832,4,2,0,0,0,0,6,0,3,0,-1,2,32,0,0,-1,0x830,-1,-1,-1,0 
1,1,268,0,0,5842,.ISETP.LE.AND,5831,5833,4,2,0,0,0,0,6,0,3,0,-1,2,32,0,0,-1,0x840,-1,-1,-1,0 
1,1,269,0,0,5842,.PLOP3.LUT,5833,5834,4,0,0,0,0,0,1,0,3,0,-1,2,32,0,0,-1,0x850,-1,-1,-1,0 
1,1,270,0,0,5844,.PRMT,5833,5835,4,2,1,0,0,0,1,0,3,0,-1,2,32,0,0,-1,0x860,-1,-1,-1,0 
1,1,271,0,0,5844,.PLOP3.LUT,5835,5836,4,0,0,0,0,0,1,0,3,0,-1,2,32,0,0,-1,0x870,-1,-1,-1,0 
1,1,272,0,0,5845,.BRA,5835,5837,4,0,0,0,0,0,100,0,7,0,-1,4,32,0,0,-1,0x880,-1,-1,-1,0 
1,1,275,0,0,5845,.BAR.SYNC,5839,5840,1,0,0,0,0,0,13,0,3,0,-1,1,32,0,0,-1,0xa40,1,-1,-1,0 
1,1,273,0,0,5846,.BSYNC,5837,5838,4,0,0,0,0,0,100,0,7,0,-1,4,32,0,0,-1,0xa20,-1,-1,-1,0 
1,1,274,0,0,5847,.NOP,5837,5839,4,0,0,0,0,0,1,0,3,0,-1,2,32,0,0,-1,0xa30,-1,-1,-1,0 
1,1,276,0,0,5850,.ISETP.NE.AND,5839,5841,4,2,0,0,0,0,6,0,3,0,-1,2,32,0,0,-1,0xa50,-1,-1,-1,0 
1,1,277,0,0,5850,.BRA,5841,5842,4,0,0,0,0,0,100,0,7,0,-1,4,32,0,0,-1,0xa60,-1,-1,-1,0 
1,1,279,0,0,5850,.EXIT,5844,5845,1,0,0,0,0,0,17,0,3,0,-1,1,32,0,0,-1,0xb10,-1,-1,-1,0 
1,1,278,0,0,5853,.LOP3.LUT,5841,5844,4,3,0,0,0,0,6,0,3,0,-1,2,32,0,0,-1,0xb00,-1,-1,-1,0 
Destroy streams for kernel 1: size 0


gpgpu_simulation_time = 0 days, 0 hrs, 0 min, 1 sec (1 sec)
gpgpu_simulation_rate = 7968 (inst/sec)
gpgpu_simulation_rate = 5854 (cycle/sec)
gpgpu_silicon_slowdown = 193372x
-kernel name = _Z14calculate_tempiPfS_iiiiffffff
-kernel id = 2
-grid dim = (8,8,1)
-block dim = (16,16,1)
-shmem = 3072
-nregs = 35
-binary version = 70
-cuda stream id = 0
-shmem base_addr = 0x00007f69c0000000
-local mem base_addr = 0x00007f69c2000000
-nvbit version = 1.4
-accelsim tracer version = 3
launching kernel command : /scratch/santosh/gpu_simulation/accel-sim-framework/traces/rodinia_2.0-ft/11.0/hotspot-rodinia-2.0-ft/30_6_40___data_result_30_6_40_txt/traces/kernel-2.traceg
GPGPU-Sim uArch: Shader 0 bind to kernel 2 '_Z14calculate_tempiPfS_iiiiffffff'
GPGPU-Sim: Reconfigure L1 cache to 120KB
GPGPUsim: cta_size: 32
ctaid: 0, start warp: 0, end_warp: 1, start_thread: 0, end_thread: 32
thread block = 0,0,0
warp id: 0
warp id: 1
warp_id: 0, insts: 279
1,2,280,0,0,10865,.IMAD.MOV.U32,10855,10856,4,2,1,0,0,0,6,0,3,0,-1,2,32,0,0,-1,0,-1,-1,-1,0 
1,2,282,0,0,10866,.S2R,10857,10858,4,0,1,0,0,0,1,0,3,0,-1,2,32,0,0,-1,0x20,-1,-1,-1,0 
1,2,281,0,0,10867,.SHFL.IDX,10855,10857,4,4,0,0,0,0,1,0,3,0,-1,2,0,0,0,-1,0x10,-1,-1,-1,0 
1,2,283,0,0,10868,.IMAD.MOV,10857,10859,4,2,1,0,0,0,6,0,3,0,-1,2,32,0,0,-1,0x30,-1,-1,-1,0 
1,2,284,0,0,10869,.IMAD.MOV.U32,10859,10860,4,2,1,0,0,0,6,0,3,0,-1,2,32,0,0,-1,0x40,-1,-1,-1,0 
1,2,285,0,0,10869,.S2R,10859,10861,4,0,1,0,0,0,1,0,3,0,-1,2,32,0,0,-1,0x50,-1,-1,-1,0 
1,2,286,0,0,10871,.IMAD.MOV.U32,10861,10862,4,2,1,0,0,0,6,0,3,0,-1,2,32,0,0,-1,0x60,-1,-1,-1,0 
1,2,287,0,0,10877,.LEA,10861,10868,4,1,1,0,0,0,6,0,3,0,-1,2,32,0,0,-1,0x70,-1,-1,-1,0 
1,2,288,0,0,10877,.S2R,10868,10869,4,0,1,0,0,0,1,0,3,0,-1,2,32,0,0,-1,0x80,-1,-1,-1,0 
1,2,289,0,0,10879,.IADD3,10868,10870,4,2,1,0,0,0,6,0,3,0,-1,2,32,0,0,-1,0x90,-1,-1,-1,0 
1,2,290,0,0,10880,.IADD3,10870,10871,4,2,1,0,0,0,6,0,3,0,-1,2,32,0,0,-1,0xa0,-1,-1,-1,0 
1,2,291,0,0,10880,.S2R,10870,10872,4,0,1,0,0,0,1,0,3,0,-1,2,32,0,0,-1,0xb0,-1,-1,-1,0 
1,2,292,0,0,10886,.IMAD,10872,10877,4,2,1,0,0,0,6,0,3,0,-1,2,32,0,0,-1,0xc0,-1,-1,-1,0 
1,2,293,0,0,10887,.IMAD,10872,10878,4,2,1,0,0,0,6,0,3,0,-1,2,32,0,0,-1,0xd0,-1,-1,-1,0 
1,2,294,0,0,10895,.IMAD.IADD,10878,10886,4,2,1,0,0,0,6,0,3,0,-1,2,32,0,0,-1,0xe0,-1,-1,-1,0 
1,2,295,0,0,10896,.IMAD.IADD,10878,10887,4,2,1,0,0,0,6,0,3,0,-1,2,32,0,0,-1,0xf0,-1,-1,-1,0 
1,2,296,0,0,10904,.ISETP.GT.AND,10887,10895,4,2,0,0,0,0,6,0,3,0,-1,2,32,0,0,-1,0x100,-1,-1,-1,0 
1,2,297,0,0,10905,.ISETP.GT.AND,10887,10896,4,2,0,0,0,0,6,0,3,0,-1,2,32,0,0,-1,0x110,-1,-1,-1,0 
1,2,298,0,0,10906,.ISETP.GT.AND,10896,10897,4,1,0,0,0,0,6,0,3,0,-1,2,32,0,0,-1,0x120,-1,-1,-1,0 
1,2,299,0,0,10907,.IMAD,10896,10898,4,2,1,0,0,0,6,0,3,0,-1,2,32,0,0,-1,0x130,-1,-1,-1,0 
1,2,300,0,0,10908,.ISETP.GT.AND,10898,10899,4,1,0,0,0,0,6,0,3,0,-1,2,32,0,0,-1,0x140,-1,-1,-1,0 
1,2,301,0,0,10916,.IMAD.WIDE,10898,10907,4,2,1,0,0,0,6,0,3,0,-1,2,32,0,0,-1,0x150,-1,-1,-1,0 
1,2,302,0,0,10916,.PLOP3.LUT,10907,10908,4,0,0,0,0,0,1,0,3,0,-1,2,32,0,0,-1,0x160,-1,-1,-1,0 
1,2,303,0,0,10918,.IMAD.WIDE,10907,10909,4,2,1,0,0,0,6,0,3,0,-1,2,0,0,0,-1,0x170,-1,-1,-1,0 
1,2,304,0,0,10919,.LDG.E.SYS,10909,10916,1,1,1,1,0,4,8,0,6,0,-1,1,0,0,0,-1,0x180,-1,-1,-1,1 
1,2,305,0,0,10921,.LDG.E.SYS,10909,10918,1,1,1,1,0,4,8,0,6,0,-1,1,0,0,0,-1,0x190,-1,-1,-1,1 
1,2,306,0,0,10928,.IMAD.MOV.U32,10918,10919,4,2,1,0,0,0,6,0,3,0,-1,2,32,0,0,-1,0x1a0,-1,-1,-1,0 
1,2,307,0,0,10929,.IADD3,10918,10920,4,2,1,0,0,0,6,0,3,0,-1,2,32,0,0,-1,0x1b0,-1,-1,-1,0 
1,2,308,0,0,10930,.IMAD.SHL.U32,10920,10921,4,2,1,0,0,0,6,0,3,0,-1,2,32,0,0,-1,0x1c0,-1,-1,-1,0 
1,2,309,0,0,10931,.IADD3,10920,10922,4,2,1,0,0,0,6,0,3,0,-1,2,32,0,0,-1,0x1d0,-1,-1,-1,0 
1,2,310,0,0,10932,.IMAD.SHL.U32,10922,10923,4,2,1,0,0,0,6,0,3,0,-1,2,32,0,0,-1,0x1e0,-1,-1,-1,0 
1,2,311,0,0,10937,.ISETP.LE.AND,10922,10928,4,1,0,0,0,0,6,0,3,0,-1,2,32,0,0,-1,0x1f0,-1,-1,-1,0 
1,2,312,0,0,10938,.IADD3,10928,10929,4,2,1,0,0,0,6,0,3,0,-1,2,32,0,0,-1,0x200,-1,-1,-1,0 
1,2,313,0,0,10941,.IMAD.IADD,10928,10932,4,2,1,0,0,0,6,0,3,0,-1,2,32,0,0,-1,0x210,-1,-1,-1,0 
1,2,314,0,0,10942,.IADD3,10932,10933,4,2,1,0,0,0,6,0,3,0,-1,2,32,0,0,-1,0x220,-1,-1,-1,0 
1,2,315,0,0,10947,.IADD3,10932,10938,4,2,1,0,0,0,6,0,3,0,-1,2,32,0,0,-1,0x230,-1,-1,-1,0 
1,2,316,0,0,10948,.IADD3,10938,10939,4,2,1,0,0,0,6,0,3,0,-1,2,32,0,0,-1,0x240,-1,-1,-1,0 
1,2,317,0,0,10949,.ISETP.GT.AND,10938,10940,4,2,0,0,0,0,6,0,3,0,-1,2,32,0,0,-1,0x250,-1,-1,-1,0 
1,2,319,0,0,10951,.STS,10940,10948,1,2,0,0,1,4,11,0,6,0,-1,1,0,0,0,-1,0x270,-1,-1,-1,0 
1,2,320,0,0,10952,.STS,10948,10949,1,2,0,0,1,4,11,0,6,0,-1,1,0,0,0,-1,0x280,-1,-1,-1,0 
1,2,318,0,0,10956,.IADD3,10940,10947,4,2,1,0,0,0,6,0,3,0,-1,2,32,0,0,-1,0x260,-1,-1,-1,0 
1,2,322,0,0,10956,.BAR.SYNC,10950,10951,1,0,0,0,0,0,13,0,3,0,-1,1,32,0,0,-1,0x2a0,1,-1,-1,0 
1,2,321,0,0,10958,.NOP,10948,10950,4,0,0,0,0,0,1,0,3,0,-1,2,32,0,0,-1,0x290,-1,-1,-1,0 
1,2,323,0,0,10961,.ISETP.GT.AND,10950,10952,4,2,0,0,0,0,6,0,3,0,-1,2,32,0,0,-1,0x2b0,-1,-1,-1,0 
1,2,324,0,0,10962,.IADD3,10952,10953,4,2,1,0,0,0,6,0,3,0,-1,2,32,0,0,-1,0x2c0,-1,-1,-1,0 
1,2,325,0,0,10965,.SEL,10952,10956,4,1,1,0,0,0,1,0,3,0,-1,2,32,0,0,-1,0x2d0,-1,-1,-1,0 
1,2,326,0,0,10971,.SEL,10956,10962,4,1,1,0,0,0,1,0,3,0,-1,2,32,0,0,-1,0x2e0,-1,-1,-1,0 
1,2,327,0,0,10971,.BRA,10956,10963,4,0,0,0,0,0,100,0,7,0,-1,4,0,0,0,-1,0x2f0,-1,-1,-1,0 
1,2,328,0,0,10974,.IMAD.MOV,10963,10964,4,3,1,0,0,0,6,0,3,0,-1,2,32,0,0,-1,0x300,-1,-1,-1,0 
1,2,329,0,0,10975,.SHF.R.S32.HI,10963,10965,4,2,1,0,0,0,6,0,3,0,-1,2,32,0,0,-1,0x310,-1,-1,-1,0 
1,2,330,0,0,10976,.IMAD.MOV,10965,10966,4,3,1,0,0,0,6,0,3,0,-1,2,32,0,0,-1,0x320,-1,-1,-1,0 
1,2,331,0,0,10976,.SHF.R.S32.HI,10965,10967,4,2,1,0,0,0,6,0,3,0,-1,2,32,0,0,-1,0x330,-1,-1,-1,0 
1,2,332,0,0,10978,.IMAD.MOV.U32,10967,10968,4,3,1,0,0,0,6,0,3,0,-1,2,32,0,0,-1,0x340,-1,-1,-1,0 
1,2,333,0,0,10984,.LOP3.LUT,10967,10975,4,3,1,0,0,0,6,0,3,0,-1,2,32,0,0,-1,0x350,-1,-1,-1,0 
1,2,334,0,0,10985,.LOP3.LUT,10975,10976,4,3,1,0,0,0,6,0,3,0,-1,2,32,0,0,-1,0x360,-1,-1,-1,0 
1,2,335,0,0,10985,.MOV,10975,10977,4,0,1,0,0,0,1,0,3,0,-1,2,32,0,0,-1,0x370,-1,-1,-1,0 
1,2,336,0,0,10986,.CALL.REL.NOINC,10977,10978,4,0,0,0,0,0,100,0,7,0,-1,4,32,0,0,-1,0x380,-1,-1,-1,0 
1,2,337,0,0,10989,.SHFL.IDX,10977,10979,4,4,0,0,0,0,1,0,3,0,-1,2,0,0,0,-1,0xe90,-1,-1,-1,0 
1,2,338,0,0,10990,.IMAD.MOV.U32,10979,10980,4,2,1,0,0,0,6,0,3,0,-1,2,32,0,0,-1,0xea0,-1,-1,-1,0 
1,2,339,0,0,10999,.FCHK,10979,10990,4,1,0,0,0,0,5,0,1,0,-1,2,32,0,0,-1,0xeb0,-1,-1,-1,0 
1,2,340,0,0,10999,.BRA,10990,10991,4,0,0,0,0,0,100,0,7,0,-1,4,0,0,0,-1,0xec0,-1,-1,-1,0 
1,2,342,0,0,11002,.FADD.FTZ,10992,10993,4,1,1,0,0,0,5,0,1,0,-1,2,32,0,0,-1,0xee0,-1,-1,-1,0 
1,2,341,0,0,11016,.MUFU.RCP,10990,10992,20,0,1,0,0,0,2,0,4,0,-1,8,32,0,0,-1,0xed0,-1,-1,-1,0 
1,2,343,0,0,11025,.FFMA,10992,11016,4,2,1,0,0,0,5,0,1,0,-1,2,32,0,0,-1,0xef0,-1,-1,-1,0 
1,2,344,0,0,11034,.FFMA,11016,11025,4,3,1,0,0,0,5,0,1,0,-1,2,32,0,0,-1,0xf00,-1,-1,-1,0 
1,2,345,0,0,11043,.FFMA,11016,11034,4,2,1,0,0,0,5,0,1,0,-1,2,32,0,0,-1,0xf10,-1,-1,-1,0 
1,2,346,0,0,11052,.FFMA,11034,11043,4,2,1,0,0,0,5,0,1,0,-1,2,32,0,0,-1,0xf20,-1,-1,-1,0 
1,2,347,0,0,11061,.FFMA,11034,11052,4,3,1,0,0,0,5,0,1,0,-1,2,32,0,0,-1,0xf30,-1,-1,-1,0 
1,2,348,0,0,11062,.IMAD.MOV.U32,11052,11053,4,2,1,0,0,0,6,0,3,0,-1,2,32,0,0,-1,0xf40,-1,-1,-1,0 
1,2,349,0,0,11070,.FFMA,11052,11061,4,2,1,0,0,0,5,0,1,0,-1,2,32,0,0,-1,0xf50,-1,-1,-1,0 
1,2,350,0,0,11079,.FFMA,11061,11070,4,3,1,0,0,0,5,0,1,0,-1,2,32,0,0,-1,0xf60,-1,-1,-1,0 
1,2,351,0,0,11079,.RET.REL.NODEC,11061,11071,4,0,1,0,0,0,100,0,7,0,-1,4,32,0,0,-1,0xf70,-1,-1,-1,0 
1,2,352,0,0,11081,.IMAD.MOV.U32,11071,11072,4,2,1,0,0,0,6,0,3,0,-1,2,32,0,0,-1,0x390,-1,-1,-1,0 
1,2,353,0,0,11082,.IADD3,11071,11073,4,2,1,0,0,0,6,0,3,0,-1,2,32,0,0,-1,0x3a0,-1,-1,-1,0 
1,2,354,0,0,11083,.ISETP.GE.AND,11073,11074,4,2,0,0,0,0,6,0,3,0,-1,2,32,0,0,-1,0x3b0,-1,-1,-1,0 
1,2,355,0,0,11090,.IADD3,11073,11081,4,2,1,0,0,0,6,0,3,0,-1,2,32,0,0,-1,0x3c0,-1,-1,-1,0 
1,2,356,0,0,11091,.IADD3,11081,11082,4,2,1,0,0,0,6,0,3,0,-1,2,32,0,0,-1,0x3d0,-1,-1,-1,0 
1,2,357,0,0,11099,.LOP3.LUT,11081,11090,4,2,1,0,0,0,6,0,3,0,-1,2,32,0,0,-1,0x3e0,-1,-1,-1,0 
1,2,358,0,0,11100,.F2F.F64.F32,11090,11091,4,1,1,0,0,0,1,0,3,0,-1,2,32,0,0,-1,0x3f0,-1,-1,-1,0 
1,2,359,0,0,11101,.ISETP.LT.AND,11090,11092,4,2,0,0,0,0,6,0,3,0,-1,2,32,0,0,-1,0x400,-1,-1,-1,0 
1,2,360,0,0,11108,.ISETP.GT.U32.AND,11092,11099,4,1,0,0,0,0,6,0,3,0,-1,2,32,0,0,-1,0x410,-1,-1,-1,0 
1,2,361,0,0,11109,.SEL,11092,11100,4,2,1,0,0,0,1,0,3,0,-1,2,32,0,0,-1,0x420,-1,-1,-1,0 
1,2,362,0,0,11110,.SEL,11100,11101,4,2,1,0,0,0,1,0,3,0,-1,2,32,0,0,-1,0x430,-1,-1,-1,0 
1,2,363,0,0,11118,.IMAD,11100,11109,4,2,1,0,0,0,6,0,3,0,-1,2,32,0,0,-1,0x440,-1,-1,-1,0 
1,2,364,0,0,11119,.IMAD,11109,11110,4,2,1,0,0,0,6,0,3,0,-1,2,32,0,0,-1,0x450,-1,-1,-1,0 
1,2,365,0,0,11119,.BRA,11109,11111,4,0,0,0,0,0,100,0,7,0,-1,4,32,0,0,-1,0x460,-1,-1,-1,0 
1,2,366,0,0,11136,.MUFU.RCP,11111,11112,20,0,1,0,0,0,2,0,4,0,-1,8,32,0,0,-1,0x4c0,-1,-1,-1,0 
1,2,367,0,0,11145,.FFMA,11111,11136,4,2,1,0,0,0,5,0,1,0,-1,2,32,0,0,-1,0x4d0,-1,-1,-1,0 
1,2,368,0,0,11154,.FADD.FTZ,11136,11145,4,2,1,0,0,0,5,0,1,0,-1,2,32,0,0,-1,0x4e0,-1,-1,-1,0 
1,2,369,0,0,11163,.FFMA,11136,11154,4,3,1,0,0,0,5,0,1,0,-1,2,32,0,0,-1,0x4f0,-1,-1,-1,0 
1,2,370,0,0,11164,.IMAD.MOV.U32,11154,11155,4,2,1,0,0,0,6,0,3,0,-1,2,32,0,0,-1,0x500,-1,-1,-1,0 
1,2,371,0,0,11165,.IADD3,11154,11156,4,2,1,0,0,0,6,0,3,0,-1,2,32,0,0,-1,0x510,-1,-1,-1,0 
1,2,372,0,0,11166,.ISETP.GE.AND,11156,11157,4,2,0,0,0,0,6,0,3,0,-1,2,32,0,0,-1,0x520,-1,-1,-1,0 
1,2,373,0,0,11173,.IADD3,11156,11164,4,2,1,0,0,0,6,0,3,0,-1,2,32,0,0,-1,0x530,-1,-1,-1,0 
1,2,374,0,0,11174,.IADD3,11164,11165,4,2,1,0,0,0,6,0,3,0,-1,2,32,0,0,-1,0x540,-1,-1,-1,0 
1,2,375,0,0,11182,.LOP3.LUT,11164,11173,4,2,1,0,0,0,6,0,3,0,-1,2,32,0,0,-1,0x550,-1,-1,-1,0 
1,2,376,0,0,11183,.F2F.F64.F32,11173,11174,4,1,1,0,0,0,1,0,3,0,-1,2,32,0,0,-1,0x560,-1,-1,-1,0 
1,2,377,0,0,11184,.ISETP.LT.AND,11173,11175,4,2,0,0,0,0,6,0,3,0,-1,2,32,0,0,-1,0x570,-1,-1,-1,0 
1,2,378,0,0,11191,.ISETP.GT.U32.AND,11175,11182,4,1,0,0,0,0,6,0,3,0,-1,2,32,0,0,-1,0x580,-1,-1,-1,0 
1,2,379,0,0,11192,.SEL,11175,11183,4,2,1,0,0,0,1,0,3,0,-1,2,32,0,0,-1,0x590,-1,-1,-1,0 
1,2,380,0,0,11193,.SEL,11183,11184,4,2,1,0,0,0,1,0,3,0,-1,2,32,0,0,-1,0x5a0,-1,-1,-1,0 
1,2,381,0,0,11201,.IMAD,11183,11192,4,2,1,0,0,0,6,0,3,0,-1,2,32,0,0,-1,0x5b0,-1,-1,-1,0 
1,2,382,0,0,11202,.IMAD,11192,11193,4,2,1,0,0,0,6,0,3,0,-1,2,32,0,0,-1,0x5c0,-1,-1,-1,0 
1,2,383,0,0,11202,.BRA,11192,11194,4,0,0,0,0,0,100,0,7,0,-1,4,32,0,0,-1,0x5d0,-1,-1,-1,0 
1,2,384,0,0,11219,.MUFU.RCP,11194,11195,20,0,1,0,0,0,2,0,4,0,-1,8,32,0,0,-1,0x630,-1,-1,-1,0 
1,2,385,0,0,11228,.FFMA,11194,11219,4,2,1,0,0,0,5,0,1,0,-1,2,32,0,0,-1,0x640,-1,-1,-1,0 
1,2,386,0,0,11237,.FADD.FTZ,11219,11228,4,2,1,0,0,0,5,0,1,0,-1,2,32,0,0,-1,0x650,-1,-1,-1,0 
1,2,387,0,0,11246,.FFMA,11219,11237,4,3,1,0,0,0,5,0,1,0,-1,2,32,0,0,-1,0x660,-1,-1,-1,0 
1,2,388,0,0,11247,.IMAD.MOV.U32,11237,11238,4,2,1,0,0,0,6,0,3,0,-1,2,32,0,0,-1,0x670,-1,-1,-1,0 
1,2,389,0,0,11248,.ISETP.GT.AND,11237,11239,4,2,0,0,0,0,6,0,3,0,-1,2,32,0,0,-1,0x680,-1,-1,-1,0 
1,2,390,0,0,11249,.IMAD.MOV.U32,11239,11240,4,2,1,0,0,0,6,0,3,0,-1,2,32,0,0,-1,0x690,-1,-1,-1,0 
1,2,391,0,0,11250,.ISETP.GT.AND,11239,11241,4,2,0,0,0,0,6,0,3,0,-1,2,32,0,0,-1,0x6a0,-1,-1,-1,0 
1,2,392,0,0,11256,.IADD3,11241,11247,4,2,1,0,0,0,6,0,3,0,-1,2,32,0,0,-1,0x6b0,-1,-1,-1,0 
1,2,393,0,0,11257,.F2F.F64.F32,11241,11248,4,1,1,0,0,0,1,0,3,0,-1,2,32,0,0,-1,0x6c0,-1,-1,-1,0 
1,2,394,0,0,11258,.ISETP.LT.OR,11248,11249,4,2,0,0,0,0,6,0,3,0,-1,2,32,0,0,-1,0x6d0,-1,-1,-1,0 
1,2,395,0,0,11265,.LOP3.LUT,11248,11256,4,2,1,0,0,0,6,0,3,0,-1,2,32,0,0,-1,0x6e0,-1,-1,-1,0 
1,2,396,0,0,11266,.ISETP.LT.OR,11256,11257,4,2,0,0,0,0,6,0,3,0,-1,2,32,0,0,-1,0x6f0,-1,-1,-1,0 
1,2,397,0,0,11274,.ISETP.GT.U32.AND,11256,11265,4,1,0,0,0,0,6,0,3,0,-1,2,32,0,0,-1,0x700,-1,-1,-1,0 
1,2,398,0,0,11275,.IADD3,11265,11266,4,2,1,0,0,0,6,0,3,0,-1,2,32,0,0,-1,0x710,-1,-1,-1,0 
1,2,399,0,0,11275,.BRA,11265,11267,4,0,0,0,0,0,100,0,7,0,-1,4,32,0,0,-1,0x720,-1,-1,-1,0 
1,2,400,0,0,11292,.MUFU.RCP,11267,11268,20,0,1,0,0,0,2,0,4,0,-1,8,32,0,0,-1,0x780,-1,-1,-1,0 
1,2,401,0,0,11301,.FFMA,11267,11292,4,2,1,0,0,0,5,0,1,0,-1,2,32,0,0,-1,0x790,-1,-1,-1,0 
1,2,402,0,0,11310,.FADD.FTZ,11292,11301,4,2,1,0,0,0,5,0,1,0,-1,2,32,0,0,-1,0x7a0,-1,-1,-1,0 
1,2,403,0,0,11319,.FFMA,11292,11310,4,3,1,0,0,0,5,0,1,0,-1,2,32,0,0,-1,0x7b0,-1,-1,-1,0 
1,2,404,0,0,11321,.SHFL.IDX,11310,11311,4,4,0,0,0,0,1,0,3,0,-1,2,0,0,0,-1,0x7c0,-1,-1,-1,0 
1,2,406,0,0,11321,.BMOV.32.CLEAR,11312,11313,4,0,1,0,0,0,100,0,7,0,-1,4,32,0,0,-1,0x7e0,-1,-1,-1,0 
1,2,405,0,0,11322,.IADD3,11310,11312,4,2,1,0,0,0,6,0,3,0,-1,2,32,0,0,-1,0x7d0,-1,-1,-1,0 
1,2,407,0,0,11330,.IADD3,11312,11321,4,2,1,0,0,0,6,0,3,0,-1,2,32,0,0,-1,0x7f0,-1,-1,-1,0 
1,2,408,0,0,11330,.BSSY,11321,11322,4,0,0,0,0,0,100,0,7,0,-1,4,32,0,0,-1,0x800,-1,-1,-1,0 
1,2,409,0,0,11332,.ISETP.GT.AND,11321,11323,4,2,0,0,0,0,6,0,3,0,-1,2,32,0,0,-1,0x810,-1,-1,-1,0 
1,2,410,0,0,11339,.ISETP.GE.AND,11323,11330,4,2,0,0,0,0,6,0,3,0,-1,2,32,0,0,-1,0x820,-1,-1,-1,0 
1,2,411,0,0,11340,.ISETP.LT.OR,11323,11331,4,2,0,0,0,0,6,0,3,0,-1,2,32,0,0,-1,0x830,-1,-1,-1,0 
1,2,412,0,0,11341,.ISETP.LE.AND,11331,11332,4,2,0,0,0,0,6,0,3,0,-1,2,32,0,0,-1,0x840,-1,-1,-1,0 
1,2,413,0,0,11341,.PLOP3.LUT,11331,11333,4,0,0,0,0,0,1,0,3,0,-1,2,32,0,0,-1,0x850,-1,-1,-1,0 
1,2,414,0,0,11343,.PRMT,11333,11334,4,2,1,0,0,0,1,0,3,0,-1,2,32,0,0,-1,0x860,-1,-1,-1,0 
1,2,415,0,0,11343,.PLOP3.LUT,11333,11335,4,0,0,0,0,0,1,0,3,0,-1,2,32,0,0,-1,0x870,-1,-1,-1,0 
1,2,416,0,0,11344,.BRA,11335,11336,4,0,0,0,0,0,100,0,7,0,-1,4,32,0,0,-1,0x880,-1,-1,-1,0 
1,2,419,0,0,11344,.BAR.SYNC,11337,11339,1,0,0,0,0,0,13,0,3,0,-1,1,32,0,0,-1,0xa40,1,-1,-1,0 
1,2,417,0,0,11345,.BSYNC,11335,11337,4,0,0,0,0,0,100,0,7,0,-1,4,32,0,0,-1,0xa20,-1,-1,-1,0 
1,2,418,0,0,11346,.NOP,11337,11338,4,0,0,0,0,0,1,0,3,0,-1,2,32,0,0,-1,0xa30,-1,-1,-1,0 
1,2,420,0,0,11349,.ISETP.NE.AND,11339,11340,4,2,0,0,0,0,6,0,3,0,-1,2,32,0,0,-1,0xa50,-1,-1,-1,0 
1,2,421,0,0,11349,.BRA,11339,11341,4,0,0,0,0,0,100,0,7,0,-1,4,0,0,0,-1,0xa60,-1,-1,-1,0 
1,2,422,0,0,11352,.PRMT,11341,11343,4,2,1,0,0,0,1,0,3,0,-1,2,32,0,0,-1,0xa70,-1,-1,-1,0 
1,2,423,0,0,11353,.IADD3,11341,11344,4,2,1,0,0,0,6,0,3,0,-1,2,32,0,0,-1,0xa80,-1,-1,-1,0 
1,2,424,0,0,11361,.ISETP.NE.AND,11344,11352,4,2,0,0,0,0,6,0,3,0,-1,2,32,0,0,-1,0xa90,-1,-1,-1,0 
1,2,425,0,0,11377,.LDS.U,11344,11353,1,1,1,1,0,4,8,0,6,0,-1,1,0,0,0,-1,0xaa0,-1,-1,-1,0 
1,2,426,0,0,11380,.STS,11353,11377,1,2,0,0,1,4,11,0,6,0,-1,1,0,0,0,-1,0xab0,-1,-1,-1,0 
1,2,428,0,0,11384,.BAR.SYNC,11378,11379,1,0,0,0,0,0,13,0,3,0,-1,1,32,0,0,-1,0xad0,1,-1,-1,0 
1,2,427,0,0,11386,.NOP,11353,11378,4,0,0,0,0,0,1,0,3,0,-1,2,32,0,0,-1,0xac0,-1,-1,-1,0 
1,2,429,0,0,11389,.ISETP.GE.AND,11378,11380,4,1,0,0,0,0,6,0,3,0,-1,2,32,0,0,-1,0xae0,-1,-1,-1,0 
1,2,430,0,0,11389,.BRA,11380,11381,4,0,0,0,0,0,100,0,7,0,-1,4,32,0,0,-1,0xaf0,-1,-1,-1,0 
1,2,431,0,0,11392,.SHFL.IDX,11380,11382,4,4,0,0,0,0,1,0,3,0,-1,2,0,0,0,-1,0x7c0,-1,-1,-1,0 
1,2,433,0,0,11392,.BMOV.32.CLEAR,11382,11384,4,0,1,0,0,0,100,0,7,0,-1,4,32,0,0,-1,0x7e0,-1,-1,-1,0 
1,2,432,0,0,11393,.IADD3,11382,11383,4,2,1,0,0,0,6,0,3,0,-1,2,32,0,0,-1,0x7d0,-1,-1,-1,0 
1,2,434,0,0,11401,.IADD3,11384,11392,4,2,1,0,0,0,6,0,3,0,-1,2,32,0,0,-1,0x7f0,-1,-1,-1,0 
1,2,435,0,0,11401,.BSSY,11384,11393,4,0,0,0,0,0,100,0,7,0,-1,4,32,0,0,-1,0x800,-1,-1,-1,0 
1,2,436,0,0,11403,.ISETP.GT.AND,11393,11394,4,2,0,0,0,0,6,0,3,0,-1,2,32,0,0,-1,0x810,-1,-1,-1,0 
1,2,437,0,0,11410,.ISETP.GE.AND,11393,11401,4,2,0,0,0,0,6,0,3,0,-1,2,32,0,0,-1,0x820,-1,-1,-1,0 
1,2,438,0,0,11411,.ISETP.LT.OR,11401,11402,4,2,0,0,0,0,6,0,3,0,-1,2,32,0,0,-1,0x830,-1,-1,-1,0 
1,2,439,0,0,11412,.ISETP.LE.AND,11401,11403,4,2,0,0,0,0,6,0,3,0,-1,2,32,0,0,-1,0x840,-1,-1,-1,0 
1,2,440,0,0,11412,.PLOP3.LUT,11403,11404,4,0,0,0,0,0,1,0,3,0,-1,2,32,0,0,-1,0x850,-1,-1,-1,0 
1,2,441,0,0,11414,.PRMT,11403,11405,4,2,1,0,0,0,1,0,3,0,-1,2,32,0,0,-1,0x860,-1,-1,-1,0 
1,2,442,0,0,11414,.PLOP3.LUT,11405,11406,4,0,0,0,0,0,1,0,3,0,-1,2,32,0,0,-1,0x870,-1,-1,-1,0 
1,2,443,0,0,11415,.BRA,11405,11407,4,0,0,0,0,0,100,0,7,0,-1,4,32,0,0,-1,0x880,-1,-1,-1,0 
1,2,446,0,0,11415,.BAR.SYNC,11409,11410,1,0,0,0,0,0,13,0,3,0,-1,1,32,0,0,-1,0xa40,1,-1,-1,0 
1,2,444,0,0,11416,.BSYNC,11407,11408,4,0,0,0,0,0,100,0,7,0,-1,4,32,0,0,-1,0xa20,-1,-1,-1,0 
1,2,445,0,0,11417,.NOP,11407,11409,4,0,0,0,0,0,1,0,3,0,-1,2,32,0,0,-1,0xa30,-1,-1,-1,0 
1,2,447,0,0,11420,.ISETP.NE.AND,11409,11411,4,2,0,0,0,0,6,0,3,0,-1,2,32,0,0,-1,0xa50,-1,-1,-1,0 
1,2,448,0,0,11420,.BRA,11411,11412,4,0,0,0,0,0,100,0,7,0,-1,4,0,0,0,-1,0xa60,-1,-1,-1,0 
1,2,449,0,0,11423,.PRMT,11411,11414,4,2,1,0,0,0,1,0,3,0,-1,2,32,0,0,-1,0xa70,-1,-1,-1,0 
1,2,450,0,0,11424,.IADD3,11414,11415,4,2,1,0,0,0,6,0,3,0,-1,2,32,0,0,-1,0xa80,-1,-1,-1,0 
1,2,451,0,0,11432,.ISETP.NE.AND,11414,11423,4,2,0,0,0,0,6,0,3,0,-1,2,32,0,0,-1,0xa90,-1,-1,-1,0 
1,2,452,0,0,11448,.LDS.U,11423,11424,1,1,1,1,0,4,8,0,6,0,-1,1,0,0,0,-1,0xaa0,-1,-1,-1,0 
1,2,453,0,0,11451,.STS,11423,11448,1,2,0,0,1,4,11,0,6,0,-1,1,0,0,0,-1,0xab0,-1,-1,-1,0 
1,2,455,0,0,11455,.BAR.SYNC,11448,11450,1,0,0,0,0,0,13,0,3,0,-1,1,32,0,0,-1,0xad0,1,-1,-1,0 
1,2,454,0,0,11457,.NOP,11448,11449,4,0,0,0,0,0,1,0,3,0,-1,2,32,0,0,-1,0xac0,-1,-1,-1,0 
1,2,456,0,0,11460,.ISETP.GE.AND,11450,11451,4,1,0,0,0,0,6,0,3,0,-1,2,32,0,0,-1,0xae0,-1,-1,-1,0 
1,2,457,0,0,11460,.BRA,11450,11452,4,0,0,0,0,0,100,0,7,0,-1,4,32,0,0,-1,0xaf0,-1,-1,-1,0 
1,2,458,0,0,11463,.SHFL.IDX,11452,11453,4,4,0,0,0,0,1,0,3,0,-1,2,0,0,0,-1,0x7c0,-1,-1,-1,0 
1,2,460,0,0,11463,.BMOV.32.CLEAR,11454,11455,4,0,1,0,0,0,100,0,7,0,-1,4,32,0,0,-1,0x7e0,-1,-1,-1,0 
1,2,459,0,0,11464,.IADD3,11452,11454,4,2,1,0,0,0,6,0,3,0,-1,2,32,0,0,-1,0x7d0,-1,-1,-1,0 
1,2,461,0,0,11472,.IADD3,11454,11463,4,2,1,0,0,0,6,0,3,0,-1,2,32,0,0,-1,0x7f0,-1,-1,-1,0 
1,2,462,0,0,11472,.BSSY,11463,11464,4,0,0,0,0,0,100,0,7,0,-1,4,32,0,0,-1,0x800,-1,-1,-1,0 
1,2,463,0,0,11474,.ISETP.GT.AND,11463,11465,4,2,0,0,0,0,6,0,3,0,-1,2,32,0,0,-1,0x810,-1,-1,-1,0 
1,2,464,0,0,11481,.ISETP.GE.AND,11465,11472,4,2,0,0,0,0,6,0,3,0,-1,2,32,0,0,-1,0x820,-1,-1,-1,0 
1,2,465,0,0,11482,.ISETP.LT.OR,11465,11473,4,2,0,0,0,0,6,0,3,0,-1,2,32,0,0,-1,0x830,-1,-1,-1,0 
1,2,466,0,0,11483,.ISETP.LE.AND,11473,11474,4,2,0,0,0,0,6,0,3,0,-1,2,32,0,0,-1,0x840,-1,-1,-1,0 
1,2,467,0,0,11483,.PLOP3.LUT,11473,11475,4,0,0,0,0,0,1,0,3,0,-1,2,32,0,0,-1,0x850,-1,-1,-1,0 
1,2,468,0,0,11485,.PRMT,11475,11476,4,2,1,0,0,0,1,0,3,0,-1,2,32,0,0,-1,0x860,-1,-1,-1,0 
1,2,469,0,0,11485,.PLOP3.LUT,11475,11477,4,0,0,0,0,0,1,0,3,0,-1,2,32,0,0,-1,0x870,-1,-1,-1,0 
1,2,470,0,0,11486,.BRA,11477,11478,4,0,0,0,0,0,100,0,7,0,-1,4,32,0,0,-1,0x880,-1,-1,-1,0 
1,2,473,0,0,11486,.BAR.SYNC,11479,11481,1,0,0,0,0,0,13,0,3,0,-1,1,32,0,0,-1,0xa40,1,-1,-1,0 
1,2,471,0,0,11487,.BSYNC,11477,11479,4,0,0,0,0,0,100,0,7,0,-1,4,32,0,0,-1,0xa20,-1,-1,-1,0 
1,2,472,0,0,11488,.NOP,11479,11480,4,0,0,0,0,0,1,0,3,0,-1,2,32,0,0,-1,0xa30,-1,-1,-1,0 
1,2,474,0,0,11491,.ISETP.NE.AND,11481,11482,4,2,0,0,0,0,6,0,3,0,-1,2,32,0,0,-1,0xa50,-1,-1,-1,0 
1,2,475,0,0,11491,.BRA,11481,11483,4,0,0,0,0,0,100,0,7,0,-1,4,0,0,0,-1,0xa60,-1,-1,-1,0 
1,2,476,0,0,11494,.PRMT,11483,11485,4,2,1,0,0,0,1,0,3,0,-1,2,32,0,0,-1,0xa70,-1,-1,-1,0 
1,2,477,0,0,11495,.IADD3,11483,11486,4,2,1,0,0,0,6,0,3,0,-1,2,32,0,0,-1,0xa80,-1,-1,-1,0 
1,2,478,0,0,11503,.ISETP.NE.AND,11486,11494,4,2,0,0,0,0,6,0,3,0,-1,2,32,0,0,-1,0xa90,-1,-1,-1,0 
1,2,479,0,0,11519,.LDS.U,11486,11495,1,1,1,1,0,4,8,0,6,0,-1,1,0,0,0,-1,0xaa0,-1,-1,-1,0 
1,2,480,0,0,11522,.STS,11495,11519,1,2,0,0,1,4,11,0,6,0,-1,1,0,0,0,-1,0xab0,-1,-1,-1,0 
1,2,482,0,0,11526,.BAR.SYNC,11520,11521,1,0,0,0,0,0,13,0,3,0,-1,1,32,0,0,-1,0xad0,1,-1,-1,0 
1,2,481,0,0,11528,.NOP,11495,11520,4,0,0,0,0,0,1,0,3,0,-1,2,32,0,0,-1,0xac0,-1,-1,-1,0 
1,2,483,0,0,11531,.ISETP.GE.AND,11520,11522,4,1,0,0,0,0,6,0,3,0,-1,2,32,0,0,-1,0xae0,-1,-1,-1,0 
1,2,484,0,0,11531,.BRA,11522,11523,4,0,0,0,0,0,100,0,7,0,-1,4,32,0,0,-1,0xaf0,-1,-1,-1,0 
1,2,485,0,0,11534,.SHFL.IDX,11522,11524,4,4,0,0,0,0,1,0,3,0,-1,2,0,0,0,-1,0x7c0,-1,-1,-1,0 
1,2,487,0,0,11534,.BMOV.32.CLEAR,11524,11526,4,0,1,0,0,0,100,0,7,0,-1,4,32,0,0,-1,0x7e0,-1,-1,-1,0 
1,2,486,0,0,11535,.IADD3,11524,11525,4,2,1,0,0,0,6,0,3,0,-1,2,32,0,0,-1,0x7d0,-1,-1,-1,0 
1,2,488,0,0,11543,.IADD3,11526,11534,4,2,1,0,0,0,6,0,3,0,-1,2,32,0,0,-1,0x7f0,-1,-1,-1,0 
1,2,489,0,0,11543,.BSSY,11526,11535,4,0,0,0,0,0,100,0,7,0,-1,4,32,0,0,-1,0x800,-1,-1,-1,0 
1,2,490,0,0,11545,.ISETP.GT.AND,11535,11536,4,2,0,0,0,0,6,0,3,0,-1,2,32,0,0,-1,0x810,-1,-1,-1,0 
1,2,491,0,0,11552,.ISETP.GE.AND,11535,11543,4,2,0,0,0,0,6,0,3,0,-1,2,32,0,0,-1,0x820,-1,-1,-1,0 
1,2,492,0,0,11553,.ISETP.LT.OR,11543,11544,4,2,0,0,0,0,6,0,3,0,-1,2,32,0,0,-1,0x830,-1,-1,-1,0 
1,2,493,0,0,11554,.ISETP.LE.AND,11543,11545,4,2,0,0,0,0,6,0,3,0,-1,2,32,0,0,-1,0x840,-1,-1,-1,0 
1,2,494,0,0,11554,.PLOP3.LUT,11545,11546,4,0,0,0,0,0,1,0,3,0,-1,2,32,0,0,-1,0x850,-1,-1,-1,0 
1,2,495,0,0,11556,.PRMT,11545,11547,4,2,1,0,0,0,1,0,3,0,-1,2,32,0,0,-1,0x860,-1,-1,-1,0 
1,2,496,0,0,11556,.PLOP3.LUT,11547,11548,4,0,0,0,0,0,1,0,3,0,-1,2,32,0,0,-1,0x870,-1,-1,-1,0 
1,2,497,0,0,11557,.BRA,11547,11549,4,0,0,0,0,0,100,0,7,0,-1,4,32,0,0,-1,0x880,-1,-1,-1,0 
1,2,500,0,0,11557,.BAR.SYNC,11551,11552,1,0,0,0,0,0,13,0,3,0,-1,1,32,0,0,-1,0xa40,1,-1,-1,0 
1,2,498,0,0,11558,.BSYNC,11549,11550,4,0,0,0,0,0,100,0,7,0,-1,4,32,0,0,-1,0xa20,-1,-1,-1,0 
1,2,499,0,0,11559,.NOP,11549,11551,4,0,0,0,0,0,1,0,3,0,-1,2,32,0,0,-1,0xa30,-1,-1,-1,0 
1,2,501,0,0,11562,.ISETP.NE.AND,11551,11553,4,2,0,0,0,0,6,0,3,0,-1,2,32,0,0,-1,0xa50,-1,-1,-1,0 
1,2,502,0,0,11562,.BRA,11553,11554,4,0,0,0,0,0,100,0,7,0,-1,4,0,0,0,-1,0xa60,-1,-1,-1,0 
1,2,503,0,0,11565,.PRMT,11553,11556,4,2,1,0,0,0,1,0,3,0,-1,2,32,0,0,-1,0xa70,-1,-1,-1,0 
1,2,504,0,0,11566,.IADD3,11556,11557,4,2,1,0,0,0,6,0,3,0,-1,2,32,0,0,-1,0xa80,-1,-1,-1,0 
1,2,505,0,0,11574,.ISETP.NE.AND,11556,11565,4,2,0,0,0,0,6,0,3,0,-1,2,32,0,0,-1,0xa90,-1,-1,-1,0 
1,2,506,0,0,11590,.LDS.U,11565,11566,1,1,1,1,0,4,8,0,6,0,-1,1,0,0,0,-1,0xaa0,-1,-1,-1,0 
1,2,507,0,0,11593,.STS,11565,11590,1,2,0,0,1,4,11,0,6,0,-1,1,0,0,0,-1,0xab0,-1,-1,-1,0 
1,2,509,0,0,11597,.BAR.SYNC,11590,11592,1,0,0,0,0,0,13,0,3,0,-1,1,32,0,0,-1,0xad0,1,-1,-1,0 
1,2,508,0,0,11599,.NOP,11590,11591,4,0,0,0,0,0,1,0,3,0,-1,2,32,0,0,-1,0xac0,-1,-1,-1,0 
1,2,510,0,0,11602,.ISETP.GE.AND,11592,11593,4,1,0,0,0,0,6,0,3,0,-1,2,32,0,0,-1,0xae0,-1,-1,-1,0 
1,2,511,0,0,11602,.BRA,11592,11594,4,0,0,0,0,0,100,0,7,0,-1,4,32,0,0,-1,0xaf0,-1,-1,-1,0 
1,2,512,0,0,11605,.SHFL.IDX,11594,11595,4,4,0,0,0,0,1,0,3,0,-1,2,0,0,0,-1,0x7c0,-1,-1,-1,0 
1,2,514,0,0,11605,.BMOV.32.CLEAR,11596,11597,4,0,1,0,0,0,100,0,7,0,-1,4,32,0,0,-1,0x7e0,-1,-1,-1,0 
1,2,513,0,0,11606,.IADD3,11594,11596,4,2,1,0,0,0,6,0,3,0,-1,2,32,0,0,-1,0x7d0,-1,-1,-1,0 
1,2,515,0,0,11614,.IADD3,11596,11605,4,2,1,0,0,0,6,0,3,0,-1,2,32,0,0,-1,0x7f0,-1,-1,-1,0 
1,2,516,0,0,11614,.BSSY,11605,11606,4,0,0,0,0,0,100,0,7,0,-1,4,32,0,0,-1,0x800,-1,-1,-1,0 
1,2,517,0,0,11616,.ISETP.GT.AND,11605,11607,4,2,0,0,0,0,6,0,3,0,-1,2,32,0,0,-1,0x810,-1,-1,-1,0 
1,2,518,0,0,11623,.ISETP.GE.AND,11607,11614,4,2,0,0,0,0,6,0,3,0,-1,2,32,0,0,-1,0x820,-1,-1,-1,0 
1,2,519,0,0,11624,.ISETP.LT.OR,11607,11615,4,2,0,0,0,0,6,0,3,0,-1,2,32,0,0,-1,0x830,-1,-1,-1,0 
1,2,520,0,0,11625,.ISETP.LE.AND,11615,11616,4,2,0,0,0,0,6,0,3,0,-1,2,32,0,0,-1,0x840,-1,-1,-1,0 
1,2,521,0,0,11625,.PLOP3.LUT,11615,11617,4,0,0,0,0,0,1,0,3,0,-1,2,32,0,0,-1,0x850,-1,-1,-1,0 
1,2,522,0,0,11627,.PRMT,11617,11618,4,2,1,0,0,0,1,0,3,0,-1,2,32,0,0,-1,0x860,-1,-1,-1,0 
1,2,523,0,0,11627,.PLOP3.LUT,11617,11619,4,0,0,0,0,0,1,0,3,0,-1,2,32,0,0,-1,0x870,-1,-1,-1,0 
1,2,524,0,0,11628,.BRA,11619,11620,4,0,0,0,0,0,100,0,7,0,-1,4,32,0,0,-1,0x880,-1,-1,-1,0 
1,2,527,0,0,11628,.BAR.SYNC,11621,11623,1,0,0,0,0,0,13,0,3,0,-1,1,32,0,0,-1,0xa40,1,-1,-1,0 
1,2,525,0,0,11629,.BSYNC,11619,11621,4,0,0,0,0,0,100,0,7,0,-1,4,32,0,0,-1,0xa20,-1,-1,-1,0 
1,2,526,0,0,11630,.NOP,11621,11622,4,0,0,0,0,0,1,0,3,0,-1,2,32,0,0,-1,0xa30,-1,-1,-1,0 
1,2,528,0,0,11633,.ISETP.NE.AND,11623,11624,4,2,0,0,0,0,6,0,3,0,-1,2,32,0,0,-1,0xa50,-1,-1,-1,0 
1,2,529,0,0,11633,.BRA,11623,11625,4,0,0,0,0,0,100,0,7,0,-1,4,0,0,0,-1,0xa60,-1,-1,-1,0 
1,2,530,0,0,11636,.PRMT,11625,11627,4,2,1,0,0,0,1,0,3,0,-1,2,32,0,0,-1,0xa70,-1,-1,-1,0 
1,2,531,0,0,11637,.IADD3,11625,11628,4,2,1,0,0,0,6,0,3,0,-1,2,32,0,0,-1,0xa80,-1,-1,-1,0 
1,2,532,0,0,11645,.ISETP.NE.AND,11628,11636,4,2,0,0,0,0,6,0,3,0,-1,2,32,0,0,-1,0xa90,-1,-1,-1,0 
1,2,533,0,0,11661,.LDS.U,11628,11637,1,1,1,1,0,4,8,0,6,0,-1,1,0,0,0,-1,0xaa0,-1,-1,-1,0 
1,2,534,0,0,11664,.STS,11637,11661,1,2,0,0,1,4,11,0,6,0,-1,1,0,0,0,-1,0xab0,-1,-1,-1,0 
1,2,536,0,0,11668,.BAR.SYNC,11662,11663,1,0,0,0,0,0,13,0,3,0,-1,1,32,0,0,-1,0xad0,1,-1,-1,0 
1,2,535,0,0,11670,.NOP,11637,11662,4,0,0,0,0,0,1,0,3,0,-1,2,32,0,0,-1,0xac0,-1,-1,-1,0 
1,2,537,0,0,11673,.ISETP.GE.AND,11662,11664,4,1,0,0,0,0,6,0,3,0,-1,2,32,0,0,-1,0xae0,-1,-1,-1,0 
1,2,538,0,0,11673,.BRA,11664,11665,4,0,0,0,0,0,100,0,7,0,-1,4,32,0,0,-1,0xaf0,-1,-1,-1,0 
1,2,539,0,0,11676,.SHFL.IDX,11664,11666,4,4,0,0,0,0,1,0,3,0,-1,2,0,0,0,-1,0x7c0,-1,-1,-1,0 
1,2,541,0,0,11676,.BMOV.32.CLEAR,11666,11668,4,0,1,0,0,0,100,0,7,0,-1,4,32,0,0,-1,0x7e0,-1,-1,-1,0 
1,2,540,0,0,11677,.IADD3,11666,11667,4,2,1,0,0,0,6,0,3,0,-1,2,32,0,0,-1,0x7d0,-1,-1,-1,0 
1,2,542,0,0,11685,.IADD3,11668,11676,4,2,1,0,0,0,6,0,3,0,-1,2,32,0,0,-1,0x7f0,-1,-1,-1,0 
1,2,543,0,0,11685,.BSSY,11668,11677,4,0,0,0,0,0,100,0,7,0,-1,4,32,0,0,-1,0x800,-1,-1,-1,0 
1,2,544,0,0,11687,.ISETP.GT.AND,11677,11678,4,2,0,0,0,0,6,0,3,0,-1,2,32,0,0,-1,0x810,-1,-1,-1,0 
1,2,545,0,0,11694,.ISETP.GE.AND,11677,11685,4,2,0,0,0,0,6,0,3,0,-1,2,32,0,0,-1,0x820,-1,-1,-1,0 
1,2,546,0,0,11695,.ISETP.LT.OR,11685,11686,4,2,0,0,0,0,6,0,3,0,-1,2,32,0,0,-1,0x830,-1,-1,-1,0 
1,2,547,0,0,11696,.ISETP.LE.AND,11685,11687,4,2,0,0,0,0,6,0,3,0,-1,2,32,0,0,-1,0x840,-1,-1,-1,0 
1,2,548,0,0,11696,.PLOP3.LUT,11687,11688,4,0,0,0,0,0,1,0,3,0,-1,2,32,0,0,-1,0x850,-1,-1,-1,0 
1,2,549,0,0,11698,.PRMT,11687,11689,4,2,1,0,0,0,1,0,3,0,-1,2,32,0,0,-1,0x860,-1,-1,-1,0 
1,2,550,0,0,11698,.PLOP3.LUT,11689,11690,4,0,0,0,0,0,1,0,3,0,-1,2,32,0,0,-1,0x870,-1,-1,-1,0 
1,2,551,0,0,11699,.BRA,11689,11691,4,0,0,0,0,0,100,0,7,0,-1,4,32,0,0,-1,0x880,-1,-1,-1,0 
1,2,554,0,0,11699,.BAR.SYNC,11693,11694,1,0,0,0,0,0,13,0,3,0,-1,1,32,0,0,-1,0xa40,1,-1,-1,0 
1,2,552,0,0,11700,.BSYNC,11691,11692,4,0,0,0,0,0,100,0,7,0,-1,4,32,0,0,-1,0xa20,-1,-1,-1,0 
1,2,553,0,0,11701,.NOP,11691,11693,4,0,0,0,0,0,1,0,3,0,-1,2,32,0,0,-1,0xa30,-1,-1,-1,0 
1,2,555,0,0,11704,.ISETP.NE.AND,11693,11695,4,2,0,0,0,0,6,0,3,0,-1,2,32,0,0,-1,0xa50,-1,-1,-1,0 
1,2,556,0,0,11704,.BRA,11695,11696,4,0,0,0,0,0,100,0,7,0,-1,4,32,0,0,-1,0xa60,-1,-1,-1,0 
1,2,558,0,0,11704,.EXIT,11698,11699,1,0,0,0,0,0,17,0,3,0,-1,1,32,0,0,-1,0xb10,-1,-1,-1,0 
1,2,557,0,0,11707,.LOP3.LUT,11695,11698,4,3,0,0,0,0,6,0,3,0,-1,2,32,0,0,-1,0xb00,-1,-1,-1,0 
Destroy streams for kernel 2: size 0


gpgpu_simulation_time = 0 days, 0 hrs, 0 min, 1 sec (1 sec)
gpgpu_simulation_rate = 15936 (inst/sec)
gpgpu_simulation_rate = 11708 (cycle/sec)
gpgpu_silicon_slowdown = 96686x
-kernel name = _Z14calculate_tempiPfS_iiiiffffff
-kernel id = 3
-grid dim = (8,8,1)
-block dim = (16,16,1)
-shmem = 3072
-nregs = 35
-binary version = 70
-cuda stream id = 0
-shmem base_addr = 0x00007f69c0000000
-local mem base_addr = 0x00007f69c2000000
-nvbit version = 1.4
-accelsim tracer version = 3
launching kernel command : /scratch/santosh/gpu_simulation/accel-sim-framework/traces/rodinia_2.0-ft/11.0/hotspot-rodinia-2.0-ft/30_6_40___data_result_30_6_40_txt/traces/kernel-3.traceg
GPGPU-Sim uArch: Shader 0 bind to kernel 3 '_Z14calculate_tempiPfS_iiiiffffff'
GPGPU-Sim: Reconfigure L1 cache to 120KB
GPGPUsim: cta_size: 32
ctaid: 0, start warp: 0, end_warp: 1, start_thread: 0, end_thread: 32
thread block = 0,0,0
warp id: 0
warp id: 1
warp_id: 0, insts: 279
1,3,559,0,0,16719,.IMAD.MOV.U32,16709,16710,4,2,1,0,0,0,6,0,3,0,-1,2,32,0,0,-1,0,-1,-1,-1,0 
1,3,561,0,0,16720,.S2R,16711,16712,4,0,1,0,0,0,1,0,3,0,-1,2,32,0,0,-1,0x20,-1,-1,-1,0 
1,3,560,0,0,16721,.SHFL.IDX,16709,16711,4,4,0,0,0,0,1,0,3,0,-1,2,0,0,0,-1,0x10,-1,-1,-1,0 
1,3,562,0,0,16722,.IMAD.MOV,16711,16713,4,2,1,0,0,0,6,0,3,0,-1,2,32,0,0,-1,0x30,-1,-1,-1,0 
1,3,563,0,0,16723,.IMAD.MOV.U32,16713,16714,4,2,1,0,0,0,6,0,3,0,-1,2,32,0,0,-1,0x40,-1,-1,-1,0 
1,3,564,0,0,16723,.S2R,16713,16715,4,0,1,0,0,0,1,0,3,0,-1,2,32,0,0,-1,0x50,-1,-1,-1,0 
1,3,565,0,0,16725,.IMAD.MOV.U32,16715,16716,4,2,1,0,0,0,6,0,3,0,-1,2,32,0,0,-1,0x60,-1,-1,-1,0 
1,3,566,0,0,16731,.LEA,16715,16722,4,1,1,0,0,0,6,0,3,0,-1,2,32,0,0,-1,0x70,-1,-1,-1,0 
1,3,567,0,0,16731,.S2R,16722,16723,4,0,1,0,0,0,1,0,3,0,-1,2,32,0,0,-1,0x80,-1,-1,-1,0 
1,3,568,0,0,16733,.IADD3,16722,16724,4,2,1,0,0,0,6,0,3,0,-1,2,32,0,0,-1,0x90,-1,-1,-1,0 
1,3,569,0,0,16734,.IADD3,16724,16725,4,2,1,0,0,0,6,0,3,0,-1,2,32,0,0,-1,0xa0,-1,-1,-1,0 
1,3,570,0,0,16734,.S2R,16724,16726,4,0,1,0,0,0,1,0,3,0,-1,2,32,0,0,-1,0xb0,-1,-1,-1,0 
1,3,571,0,0,16740,.IMAD,16726,16731,4,2,1,0,0,0,6,0,3,0,-1,2,32,0,0,-1,0xc0,-1,-1,-1,0 
1,3,572,0,0,16741,.IMAD,16726,16732,4,2,1,0,0,0,6,0,3,0,-1,2,32,0,0,-1,0xd0,-1,-1,-1,0 
1,3,573,0,0,16749,.IMAD.IADD,16732,16740,4,2,1,0,0,0,6,0,3,0,-1,2,32,0,0,-1,0xe0,-1,-1,-1,0 
1,3,574,0,0,16750,.IMAD.IADD,16732,16741,4,2,1,0,0,0,6,0,3,0,-1,2,32,0,0,-1,0xf0,-1,-1,-1,0 
1,3,575,0,0,16758,.ISETP.GT.AND,16741,16749,4,2,0,0,0,0,6,0,3,0,-1,2,32,0,0,-1,0x100,-1,-1,-1,0 
1,3,576,0,0,16759,.ISETP.GT.AND,16741,16750,4,2,0,0,0,0,6,0,3,0,-1,2,32,0,0,-1,0x110,-1,-1,-1,0 
1,3,577,0,0,16760,.ISETP.GT.AND,16750,16751,4,1,0,0,0,0,6,0,3,0,-1,2,32,0,0,-1,0x120,-1,-1,-1,0 
1,3,578,0,0,16761,.IMAD,16750,16752,4,2,1,0,0,0,6,0,3,0,-1,2,32,0,0,-1,0x130,-1,-1,-1,0 
1,3,579,0,0,16762,.ISETP.GT.AND,16752,16753,4,1,0,0,0,0,6,0,3,0,-1,2,32,0,0,-1,0x140,-1,-1,-1,0 
1,3,580,0,0,16770,.IMAD.WIDE,16752,16761,4,2,1,0,0,0,6,0,3,0,-1,2,32,0,0,-1,0x150,-1,-1,-1,0 
1,3,581,0,0,16770,.PLOP3.LUT,16761,16762,4,0,0,0,0,0,1,0,3,0,-1,2,32,0,0,-1,0x160,-1,-1,-1,0 
1,3,582,0,0,16772,.IMAD.WIDE,16761,16763,4,2,1,0,0,0,6,0,3,0,-1,2,0,0,0,-1,0x170,-1,-1,-1,0 
1,3,583,0,0,16773,.LDG.E.SYS,16763,16770,1,1,1,1,0,4,8,0,6,0,-1,1,0,0,0,-1,0x180,-1,-1,-1,1 
1,3,584,0,0,16775,.LDG.E.SYS,16763,16772,1,1,1,1,0,4,8,0,6,0,-1,1,0,0,0,-1,0x190,-1,-1,-1,1 
1,3,585,0,0,16782,.IMAD.MOV.U32,16772,16773,4,2,1,0,0,0,6,0,3,0,-1,2,32,0,0,-1,0x1a0,-1,-1,-1,0 
1,3,586,0,0,16783,.IADD3,16772,16774,4,2,1,0,0,0,6,0,3,0,-1,2,32,0,0,-1,0x1b0,-1,-1,-1,0 
1,3,587,0,0,16784,.IMAD.SHL.U32,16774,16775,4,2,1,0,0,0,6,0,3,0,-1,2,32,0,0,-1,0x1c0,-1,-1,-1,0 
1,3,588,0,0,16785,.IADD3,16774,16776,4,2,1,0,0,0,6,0,3,0,-1,2,32,0,0,-1,0x1d0,-1,-1,-1,0 
1,3,589,0,0,16786,.IMAD.SHL.U32,16776,16777,4,2,1,0,0,0,6,0,3,0,-1,2,32,0,0,-1,0x1e0,-1,-1,-1,0 
1,3,590,0,0,16791,.ISETP.LE.AND,16776,16782,4,1,0,0,0,0,6,0,3,0,-1,2,32,0,0,-1,0x1f0,-1,-1,-1,0 
1,3,591,0,0,16792,.IADD3,16782,16783,4,2,1,0,0,0,6,0,3,0,-1,2,32,0,0,-1,0x200,-1,-1,-1,0 
1,3,592,0,0,16795,.IMAD.IADD,16782,16786,4,2,1,0,0,0,6,0,3,0,-1,2,32,0,0,-1,0x210,-1,-1,-1,0 
1,3,593,0,0,16796,.IADD3,16786,16787,4,2,1,0,0,0,6,0,3,0,-1,2,32,0,0,-1,0x220,-1,-1,-1,0 
1,3,594,0,0,16801,.IADD3,16786,16792,4,2,1,0,0,0,6,0,3,0,-1,2,32,0,0,-1,0x230,-1,-1,-1,0 
1,3,595,0,0,16802,.IADD3,16792,16793,4,2,1,0,0,0,6,0,3,0,-1,2,32,0,0,-1,0x240,-1,-1,-1,0 
1,3,596,0,0,16803,.ISETP.GT.AND,16792,16794,4,2,0,0,0,0,6,0,3,0,-1,2,32,0,0,-1,0x250,-1,-1,-1,0 
1,3,598,0,0,16805,.STS,16794,16802,1,2,0,0,1,4,11,0,6,0,-1,1,0,0,0,-1,0x270,-1,-1,-1,0 
1,3,599,0,0,16806,.STS,16802,16803,1,2,0,0,1,4,11,0,6,0,-1,1,0,0,0,-1,0x280,-1,-1,-1,0 
1,3,597,0,0,16810,.IADD3,16794,16801,4,2,1,0,0,0,6,0,3,0,-1,2,32,0,0,-1,0x260,-1,-1,-1,0 
1,3,601,0,0,16810,.BAR.SYNC,16804,16805,1,0,0,0,0,0,13,0,3,0,-1,1,32,0,0,-1,0x2a0,1,-1,-1,0 
1,3,600,0,0,16812,.NOP,16802,16804,4,0,0,0,0,0,1,0,3,0,-1,2,32,0,0,-1,0x290,-1,-1,-1,0 
1,3,602,0,0,16815,.ISETP.GT.AND,16804,16806,4,2,0,0,0,0,6,0,3,0,-1,2,32,0,0,-1,0x2b0,-1,-1,-1,0 
1,3,603,0,0,16816,.IADD3,16806,16807,4,2,1,0,0,0,6,0,3,0,-1,2,32,0,0,-1,0x2c0,-1,-1,-1,0 
1,3,604,0,0,16819,.SEL,16806,16810,4,1,1,0,0,0,1,0,3,0,-1,2,32,0,0,-1,0x2d0,-1,-1,-1,0 
1,3,605,0,0,16825,.SEL,16810,16816,4,1,1,0,0,0,1,0,3,0,-1,2,32,0,0,-1,0x2e0,-1,-1,-1,0 
1,3,606,0,0,16825,.BRA,16810,16817,4,0,0,0,0,0,100,0,7,0,-1,4,0,0,0,-1,0x2f0,-1,-1,-1,0 
1,3,607,0,0,16828,.IMAD.MOV,16817,16818,4,3,1,0,0,0,6,0,3,0,-1,2,32,0,0,-1,0x300,-1,-1,-1,0 
1,3,608,0,0,16829,.SHF.R.S32.HI,16817,16819,4,2,1,0,0,0,6,0,3,0,-1,2,32,0,0,-1,0x310,-1,-1,-1,0 
1,3,609,0,0,16830,.IMAD.MOV,16819,16820,4,3,1,0,0,0,6,0,3,0,-1,2,32,0,0,-1,0x320,-1,-1,-1,0 
1,3,610,0,0,16830,.SHF.R.S32.HI,16819,16821,4,2,1,0,0,0,6,0,3,0,-1,2,32,0,0,-1,0x330,-1,-1,-1,0 
1,3,611,0,0,16832,.IMAD.MOV.U32,16821,16822,4,3,1,0,0,0,6,0,3,0,-1,2,32,0,0,-1,0x340,-1,-1,-1,0 
1,3,612,0,0,16838,.LOP3.LUT,16821,16829,4,3,1,0,0,0,6,0,3,0,-1,2,32,0,0,-1,0x350,-1,-1,-1,0 
1,3,613,0,0,16839,.LOP3.LUT,16829,16830,4,3,1,0,0,0,6,0,3,0,-1,2,32,0,0,-1,0x360,-1,-1,-1,0 
1,3,614,0,0,16839,.MOV,16829,16831,4,0,1,0,0,0,1,0,3,0,-1,2,32,0,0,-1,0x370,-1,-1,-1,0 
1,3,615,0,0,16840,.CALL.REL.NOINC,16831,16832,4,0,0,0,0,0,100,0,7,0,-1,4,32,0,0,-1,0x380,-1,-1,-1,0 
1,3,616,0,0,16843,.SHFL.IDX,16831,16833,4,4,0,0,0,0,1,0,3,0,-1,2,0,0,0,-1,0xe90,-1,-1,-1,0 
1,3,617,0,0,16844,.IMAD.MOV.U32,16833,16834,4,2,1,0,0,0,6,0,3,0,-1,2,32,0,0,-1,0xea0,-1,-1,-1,0 
1,3,618,0,0,16853,.FCHK,16833,16844,4,1,0,0,0,0,5,0,1,0,-1,2,32,0,0,-1,0xeb0,-1,-1,-1,0 
1,3,619,0,0,16853,.BRA,16844,16845,4,0,0,0,0,0,100,0,7,0,-1,4,0,0,0,-1,0xec0,-1,-1,-1,0 
1,3,621,0,0,16856,.FADD.FTZ,16846,16847,4,1,1,0,0,0,5,0,1,0,-1,2,32,0,0,-1,0xee0,-1,-1,-1,0 
1,3,620,0,0,16870,.MUFU.RCP,16844,16846,20,0,1,0,0,0,2,0,4,0,-1,8,32,0,0,-1,0xed0,-1,-1,-1,0 
1,3,622,0,0,16879,.FFMA,16846,16870,4,2,1,0,0,0,5,0,1,0,-1,2,32,0,0,-1,0xef0,-1,-1,-1,0 
1,3,623,0,0,16888,.FFMA,16870,16879,4,3,1,0,0,0,5,0,1,0,-1,2,32,0,0,-1,0xf00,-1,-1,-1,0 
1,3,624,0,0,16897,.FFMA,16870,16888,4,2,1,0,0,0,5,0,1,0,-1,2,32,0,0,-1,0xf10,-1,-1,-1,0 
1,3,625,0,0,16906,.FFMA,16888,16897,4,2,1,0,0,0,5,0,1,0,-1,2,32,0,0,-1,0xf20,-1,-1,-1,0 
1,3,626,0,0,16915,.FFMA,16888,16906,4,3,1,0,0,0,5,0,1,0,-1,2,32,0,0,-1,0xf30,-1,-1,-1,0 
1,3,627,0,0,16916,.IMAD.MOV.U32,16906,16907,4,2,1,0,0,0,6,0,3,0,-1,2,32,0,0,-1,0xf40,-1,-1,-1,0 
1,3,628,0,0,16924,.FFMA,16906,16915,4,2,1,0,0,0,5,0,1,0,-1,2,32,0,0,-1,0xf50,-1,-1,-1,0 
1,3,629,0,0,16933,.FFMA,16915,16924,4,3,1,0,0,0,5,0,1,0,-1,2,32,0,0,-1,0xf60,-1,-1,-1,0 
1,3,630,0,0,16933,.RET.REL.NODEC,16915,16925,4,0,1,0,0,0,100,0,7,0,-1,4,32,0,0,-1,0xf70,-1,-1,-1,0 
1,3,631,0,0,16935,.IMAD.MOV.U32,16925,16926,4,2,1,0,0,0,6,0,3,0,-1,2,32,0,0,-1,0x390,-1,-1,-1,0 
1,3,632,0,0,16936,.IADD3,16925,16927,4,2,1,0,0,0,6,0,3,0,-1,2,32,0,0,-1,0x3a0,-1,-1,-1,0 
1,3,633,0,0,16937,.ISETP.GE.AND,16927,16928,4,2,0,0,0,0,6,0,3,0,-1,2,32,0,0,-1,0x3b0,-1,-1,-1,0 
1,3,634,0,0,16944,.IADD3,16927,16935,4,2,1,0,0,0,6,0,3,0,-1,2,32,0,0,-1,0x3c0,-1,-1,-1,0 
1,3,635,0,0,16945,.IADD3,16935,16936,4,2,1,0,0,0,6,0,3,0,-1,2,32,0,0,-1,0x3d0,-1,-1,-1,0 
1,3,636,0,0,16953,.LOP3.LUT,16935,16944,4,2,1,0,0,0,6,0,3,0,-1,2,32,0,0,-1,0x3e0,-1,-1,-1,0 
1,3,637,0,0,16954,.F2F.F64.F32,16944,16945,4,1,1,0,0,0,1,0,3,0,-1,2,32,0,0,-1,0x3f0,-1,-1,-1,0 
1,3,638,0,0,16955,.ISETP.LT.AND,16944,16946,4,2,0,0,0,0,6,0,3,0,-1,2,32,0,0,-1,0x400,-1,-1,-1,0 
1,3,639,0,0,16962,.ISETP.GT.U32.AND,16946,16953,4,1,0,0,0,0,6,0,3,0,-1,2,32,0,0,-1,0x410,-1,-1,-1,0 
1,3,640,0,0,16963,.SEL,16946,16954,4,2,1,0,0,0,1,0,3,0,-1,2,32,0,0,-1,0x420,-1,-1,-1,0 
1,3,641,0,0,16964,.SEL,16954,16955,4,2,1,0,0,0,1,0,3,0,-1,2,32,0,0,-1,0x430,-1,-1,-1,0 
1,3,642,0,0,16972,.IMAD,16954,16963,4,2,1,0,0,0,6,0,3,0,-1,2,32,0,0,-1,0x440,-1,-1,-1,0 
1,3,643,0,0,16973,.IMAD,16963,16964,4,2,1,0,0,0,6,0,3,0,-1,2,32,0,0,-1,0x450,-1,-1,-1,0 
1,3,644,0,0,16973,.BRA,16963,16965,4,0,0,0,0,0,100,0,7,0,-1,4,32,0,0,-1,0x460,-1,-1,-1,0 
1,3,645,0,0,16990,.MUFU.RCP,16965,16966,20,0,1,0,0,0,2,0,4,0,-1,8,32,0,0,-1,0x4c0,-1,-1,-1,0 
1,3,646,0,0,16999,.FFMA,16965,16990,4,2,1,0,0,0,5,0,1,0,-1,2,32,0,0,-1,0x4d0,-1,-1,-1,0 
1,3,647,0,0,17008,.FADD.FTZ,16990,16999,4,2,1,0,0,0,5,0,1,0,-1,2,32,0,0,-1,0x4e0,-1,-1,-1,0 
1,3,648,0,0,17017,.FFMA,16990,17008,4,3,1,0,0,0,5,0,1,0,-1,2,32,0,0,-1,0x4f0,-1,-1,-1,0 
1,3,649,0,0,17018,.IMAD.MOV.U32,17008,17009,4,2,1,0,0,0,6,0,3,0,-1,2,32,0,0,-1,0x500,-1,-1,-1,0 
1,3,650,0,0,17019,.IADD3,17008,17010,4,2,1,0,0,0,6,0,3,0,-1,2,32,0,0,-1,0x510,-1,-1,-1,0 
1,3,651,0,0,17020,.ISETP.GE.AND,17010,17011,4,2,0,0,0,0,6,0,3,0,-1,2,32,0,0,-1,0x520,-1,-1,-1,0 
1,3,652,0,0,17027,.IADD3,17010,17018,4,2,1,0,0,0,6,0,3,0,-1,2,32,0,0,-1,0x530,-1,-1,-1,0 
1,3,653,0,0,17028,.IADD3,17018,17019,4,2,1,0,0,0,6,0,3,0,-1,2,32,0,0,-1,0x540,-1,-1,-1,0 
1,3,654,0,0,17036,.LOP3.LUT,17018,17027,4,2,1,0,0,0,6,0,3,0,-1,2,32,0,0,-1,0x550,-1,-1,-1,0 
1,3,655,0,0,17037,.F2F.F64.F32,17027,17028,4,1,1,0,0,0,1,0,3,0,-1,2,32,0,0,-1,0x560,-1,-1,-1,0 
1,3,656,0,0,17038,.ISETP.LT.AND,17027,17029,4,2,0,0,0,0,6,0,3,0,-1,2,32,0,0,-1,0x570,-1,-1,-1,0 
1,3,657,0,0,17045,.ISETP.GT.U32.AND,17029,17036,4,1,0,0,0,0,6,0,3,0,-1,2,32,0,0,-1,0x580,-1,-1,-1,0 
1,3,658,0,0,17046,.SEL,17029,17037,4,2,1,0,0,0,1,0,3,0,-1,2,32,0,0,-1,0x590,-1,-1,-1,0 
1,3,659,0,0,17047,.SEL,17037,17038,4,2,1,0,0,0,1,0,3,0,-1,2,32,0,0,-1,0x5a0,-1,-1,-1,0 
1,3,660,0,0,17055,.IMAD,17037,17046,4,2,1,0,0,0,6,0,3,0,-1,2,32,0,0,-1,0x5b0,-1,-1,-1,0 
1,3,661,0,0,17056,.IMAD,17046,17047,4,2,1,0,0,0,6,0,3,0,-1,2,32,0,0,-1,0x5c0,-1,-1,-1,0 
1,3,662,0,0,17056,.BRA,17046,17048,4,0,0,0,0,0,100,0,7,0,-1,4,32,0,0,-1,0x5d0,-1,-1,-1,0 
1,3,663,0,0,17073,.MUFU.RCP,17048,17049,20,0,1,0,0,0,2,0,4,0,-1,8,32,0,0,-1,0x630,-1,-1,-1,0 
1,3,664,0,0,17082,.FFMA,17048,17073,4,2,1,0,0,0,5,0,1,0,-1,2,32,0,0,-1,0x640,-1,-1,-1,0 
1,3,665,0,0,17091,.FADD.FTZ,17073,17082,4,2,1,0,0,0,5,0,1,0,-1,2,32,0,0,-1,0x650,-1,-1,-1,0 
1,3,666,0,0,17100,.FFMA,17073,17091,4,3,1,0,0,0,5,0,1,0,-1,2,32,0,0,-1,0x660,-1,-1,-1,0 
1,3,667,0,0,17101,.IMAD.MOV.U32,17091,17092,4,2,1,0,0,0,6,0,3,0,-1,2,32,0,0,-1,0x670,-1,-1,-1,0 
1,3,668,0,0,17102,.ISETP.GT.AND,17091,17093,4,2,0,0,0,0,6,0,3,0,-1,2,32,0,0,-1,0x680,-1,-1,-1,0 
1,3,669,0,0,17103,.IMAD.MOV.U32,17093,17094,4,2,1,0,0,0,6,0,3,0,-1,2,32,0,0,-1,0x690,-1,-1,-1,0 
1,3,670,0,0,17104,.ISETP.GT.AND,17093,17095,4,2,0,0,0,0,6,0,3,0,-1,2,32,0,0,-1,0x6a0,-1,-1,-1,0 
1,3,671,0,0,17110,.IADD3,17095,17101,4,2,1,0,0,0,6,0,3,0,-1,2,32,0,0,-1,0x6b0,-1,-1,-1,0 
1,3,672,0,0,17111,.F2F.F64.F32,17095,17102,4,1,1,0,0,0,1,0,3,0,-1,2,32,0,0,-1,0x6c0,-1,-1,-1,0 
1,3,673,0,0,17112,.ISETP.LT.OR,17102,17103,4,2,0,0,0,0,6,0,3,0,-1,2,32,0,0,-1,0x6d0,-1,-1,-1,0 
1,3,674,0,0,17119,.LOP3.LUT,17102,17110,4,2,1,0,0,0,6,0,3,0,-1,2,32,0,0,-1,0x6e0,-1,-1,-1,0 
1,3,675,0,0,17120,.ISETP.LT.OR,17110,17111,4,2,0,0,0,0,6,0,3,0,-1,2,32,0,0,-1,0x6f0,-1,-1,-1,0 
1,3,676,0,0,17128,.ISETP.GT.U32.AND,17110,17119,4,1,0,0,0,0,6,0,3,0,-1,2,32,0,0,-1,0x700,-1,-1,-1,0 
1,3,677,0,0,17129,.IADD3,17119,17120,4,2,1,0,0,0,6,0,3,0,-1,2,32,0,0,-1,0x710,-1,-1,-1,0 
1,3,678,0,0,17129,.BRA,17119,17121,4,0,0,0,0,0,100,0,7,0,-1,4,32,0,0,-1,0x720,-1,-1,-1,0 
1,3,679,0,0,17146,.MUFU.RCP,17121,17122,20,0,1,0,0,0,2,0,4,0,-1,8,32,0,0,-1,0x780,-1,-1,-1,0 
1,3,680,0,0,17155,.FFMA,17121,17146,4,2,1,0,0,0,5,0,1,0,-1,2,32,0,0,-1,0x790,-1,-1,-1,0 
1,3,681,0,0,17164,.FADD.FTZ,17146,17155,4,2,1,0,0,0,5,0,1,0,-1,2,32,0,0,-1,0x7a0,-1,-1,-1,0 
1,3,682,0,0,17173,.FFMA,17146,17164,4,3,1,0,0,0,5,0,1,0,-1,2,32,0,0,-1,0x7b0,-1,-1,-1,0 
1,3,683,0,0,17175,.SHFL.IDX,17164,17165,4,4,0,0,0,0,1,0,3,0,-1,2,0,0,0,-1,0x7c0,-1,-1,-1,0 
1,3,685,0,0,17175,.BMOV.32.CLEAR,17166,17167,4,0,1,0,0,0,100,0,7,0,-1,4,32,0,0,-1,0x7e0,-1,-1,-1,0 
1,3,684,0,0,17176,.IADD3,17164,17166,4,2,1,0,0,0,6,0,3,0,-1,2,32,0,0,-1,0x7d0,-1,-1,-1,0 
1,3,686,0,0,17184,.IADD3,17166,17175,4,2,1,0,0,0,6,0,3,0,-1,2,32,0,0,-1,0x7f0,-1,-1,-1,0 
1,3,687,0,0,17184,.BSSY,17175,17176,4,0,0,0,0,0,100,0,7,0,-1,4,32,0,0,-1,0x800,-1,-1,-1,0 
1,3,688,0,0,17186,.ISETP.GT.AND,17175,17177,4,2,0,0,0,0,6,0,3,0,-1,2,32,0,0,-1,0x810,-1,-1,-1,0 
1,3,689,0,0,17193,.ISETP.GE.AND,17177,17184,4,2,0,0,0,0,6,0,3,0,-1,2,32,0,0,-1,0x820,-1,-1,-1,0 
1,3,690,0,0,17194,.ISETP.LT.OR,17177,17185,4,2,0,0,0,0,6,0,3,0,-1,2,32,0,0,-1,0x830,-1,-1,-1,0 
1,3,691,0,0,17195,.ISETP.LE.AND,17185,17186,4,2,0,0,0,0,6,0,3,0,-1,2,32,0,0,-1,0x840,-1,-1,-1,0 
1,3,692,0,0,17195,.PLOP3.LUT,17185,17187,4,0,0,0,0,0,1,0,3,0,-1,2,32,0,0,-1,0x850,-1,-1,-1,0 
1,3,693,0,0,17197,.PRMT,17187,17188,4,2,1,0,0,0,1,0,3,0,-1,2,32,0,0,-1,0x860,-1,-1,-1,0 
1,3,694,0,0,17197,.PLOP3.LUT,17187,17189,4,0,0,0,0,0,1,0,3,0,-1,2,32,0,0,-1,0x870,-1,-1,-1,0 
1,3,695,0,0,17198,.BRA,17189,17190,4,0,0,0,0,0,100,0,7,0,-1,4,32,0,0,-1,0x880,-1,-1,-1,0 
1,3,698,0,0,17198,.BAR.SYNC,17191,17193,1,0,0,0,0,0,13,0,3,0,-1,1,32,0,0,-1,0xa40,1,-1,-1,0 
1,3,696,0,0,17199,.BSYNC,17189,17191,4,0,0,0,0,0,100,0,7,0,-1,4,32,0,0,-1,0xa20,-1,-1,-1,0 
1,3,697,0,0,17200,.NOP,17191,17192,4,0,0,0,0,0,1,0,3,0,-1,2,32,0,0,-1,0xa30,-1,-1,-1,0 
1,3,699,0,0,17203,.ISETP.NE.AND,17193,17194,4,2,0,0,0,0,6,0,3,0,-1,2,32,0,0,-1,0xa50,-1,-1,-1,0 
1,3,700,0,0,17203,.BRA,17193,17195,4,0,0,0,0,0,100,0,7,0,-1,4,0,0,0,-1,0xa60,-1,-1,-1,0 
1,3,701,0,0,17206,.PRMT,17195,17197,4,2,1,0,0,0,1,0,3,0,-1,2,32,0,0,-1,0xa70,-1,-1,-1,0 
1,3,702,0,0,17207,.IADD3,17195,17198,4,2,1,0,0,0,6,0,3,0,-1,2,32,0,0,-1,0xa80,-1,-1,-1,0 
1,3,703,0,0,17215,.ISETP.NE.AND,17198,17206,4,2,0,0,0,0,6,0,3,0,-1,2,32,0,0,-1,0xa90,-1,-1,-1,0 
1,3,704,0,0,17231,.LDS.U,17198,17207,1,1,1,1,0,4,8,0,6,0,-1,1,0,0,0,-1,0xaa0,-1,-1,-1,0 
1,3,705,0,0,17234,.STS,17207,17231,1,2,0,0,1,4,11,0,6,0,-1,1,0,0,0,-1,0xab0,-1,-1,-1,0 
1,3,707,0,0,17238,.BAR.SYNC,17232,17233,1,0,0,0,0,0,13,0,3,0,-1,1,32,0,0,-1,0xad0,1,-1,-1,0 
1,3,706,0,0,17240,.NOP,17207,17232,4,0,0,0,0,0,1,0,3,0,-1,2,32,0,0,-1,0xac0,-1,-1,-1,0 
1,3,708,0,0,17243,.ISETP.GE.AND,17232,17234,4,1,0,0,0,0,6,0,3,0,-1,2,32,0,0,-1,0xae0,-1,-1,-1,0 
1,3,709,0,0,17243,.BRA,17234,17235,4,0,0,0,0,0,100,0,7,0,-1,4,32,0,0,-1,0xaf0,-1,-1,-1,0 
1,3,710,0,0,17246,.SHFL.IDX,17234,17236,4,4,0,0,0,0,1,0,3,0,-1,2,0,0,0,-1,0x7c0,-1,-1,-1,0 
1,3,712,0,0,17246,.BMOV.32.CLEAR,17236,17238,4,0,1,0,0,0,100,0,7,0,-1,4,32,0,0,-1,0x7e0,-1,-1,-1,0 
1,3,711,0,0,17247,.IADD3,17236,17237,4,2,1,0,0,0,6,0,3,0,-1,2,32,0,0,-1,0x7d0,-1,-1,-1,0 
1,3,713,0,0,17255,.IADD3,17238,17246,4,2,1,0,0,0,6,0,3,0,-1,2,32,0,0,-1,0x7f0,-1,-1,-1,0 
1,3,714,0,0,17255,.BSSY,17238,17247,4,0,0,0,0,0,100,0,7,0,-1,4,32,0,0,-1,0x800,-1,-1,-1,0 
1,3,715,0,0,17257,.ISETP.GT.AND,17247,17248,4,2,0,0,0,0,6,0,3,0,-1,2,32,0,0,-1,0x810,-1,-1,-1,0 
1,3,716,0,0,17264,.ISETP.GE.AND,17247,17255,4,2,0,0,0,0,6,0,3,0,-1,2,32,0,0,-1,0x820,-1,-1,-1,0 
1,3,717,0,0,17265,.ISETP.LT.OR,17255,17256,4,2,0,0,0,0,6,0,3,0,-1,2,32,0,0,-1,0x830,-1,-1,-1,0 
1,3,718,0,0,17266,.ISETP.LE.AND,17255,17257,4,2,0,0,0,0,6,0,3,0,-1,2,32,0,0,-1,0x840,-1,-1,-1,0 
1,3,719,0,0,17266,.PLOP3.LUT,17257,17258,4,0,0,0,0,0,1,0,3,0,-1,2,32,0,0,-1,0x850,-1,-1,-1,0 
1,3,720,0,0,17268,.PRMT,17257,17259,4,2,1,0,0,0,1,0,3,0,-1,2,32,0,0,-1,0x860,-1,-1,-1,0 
1,3,721,0,0,17268,.PLOP3.LUT,17259,17260,4,0,0,0,0,0,1,0,3,0,-1,2,32,0,0,-1,0x870,-1,-1,-1,0 
1,3,722,0,0,17269,.BRA,17259,17261,4,0,0,0,0,0,100,0,7,0,-1,4,32,0,0,-1,0x880,-1,-1,-1,0 
1,3,725,0,0,17269,.BAR.SYNC,17263,17264,1,0,0,0,0,0,13,0,3,0,-1,1,32,0,0,-1,0xa40,1,-1,-1,0 
1,3,723,0,0,17270,.BSYNC,17261,17262,4,0,0,0,0,0,100,0,7,0,-1,4,32,0,0,-1,0xa20,-1,-1,-1,0 
1,3,724,0,0,17271,.NOP,17261,17263,4,0,0,0,0,0,1,0,3,0,-1,2,32,0,0,-1,0xa30,-1,-1,-1,0 
1,3,726,0,0,17274,.ISETP.NE.AND,17263,17265,4,2,0,0,0,0,6,0,3,0,-1,2,32,0,0,-1,0xa50,-1,-1,-1,0 
1,3,727,0,0,17274,.BRA,17265,17266,4,0,0,0,0,0,100,0,7,0,-1,4,0,0,0,-1,0xa60,-1,-1,-1,0 
1,3,728,0,0,17277,.PRMT,17265,17268,4,2,1,0,0,0,1,0,3,0,-1,2,32,0,0,-1,0xa70,-1,-1,-1,0 
1,3,729,0,0,17278,.IADD3,17268,17269,4,2,1,0,0,0,6,0,3,0,-1,2,32,0,0,-1,0xa80,-1,-1,-1,0 
1,3,730,0,0,17286,.ISETP.NE.AND,17268,17277,4,2,0,0,0,0,6,0,3,0,-1,2,32,0,0,-1,0xa90,-1,-1,-1,0 
1,3,731,0,0,17302,.LDS.U,17277,17278,1,1,1,1,0,4,8,0,6,0,-1,1,0,0,0,-1,0xaa0,-1,-1,-1,0 
1,3,732,0,0,17305,.STS,17277,17302,1,2,0,0,1,4,11,0,6,0,-1,1,0,0,0,-1,0xab0,-1,-1,-1,0 
1,3,734,0,0,17309,.BAR.SYNC,17302,17304,1,0,0,0,0,0,13,0,3,0,-1,1,32,0,0,-1,0xad0,1,-1,-1,0 
1,3,733,0,0,17311,.NOP,17302,17303,4,0,0,0,0,0,1,0,3,0,-1,2,32,0,0,-1,0xac0,-1,-1,-1,0 
1,3,735,0,0,17314,.ISETP.GE.AND,17304,17305,4,1,0,0,0,0,6,0,3,0,-1,2,32,0,0,-1,0xae0,-1,-1,-1,0 
1,3,736,0,0,17314,.BRA,17304,17306,4,0,0,0,0,0,100,0,7,0,-1,4,32,0,0,-1,0xaf0,-1,-1,-1,0 
1,3,737,0,0,17317,.SHFL.IDX,17306,17307,4,4,0,0,0,0,1,0,3,0,-1,2,0,0,0,-1,0x7c0,-1,-1,-1,0 
1,3,739,0,0,17317,.BMOV.32.CLEAR,17308,17309,4,0,1,0,0,0,100,0,7,0,-1,4,32,0,0,-1,0x7e0,-1,-1,-1,0 
1,3,738,0,0,17318,.IADD3,17306,17308,4,2,1,0,0,0,6,0,3,0,-1,2,32,0,0,-1,0x7d0,-1,-1,-1,0 
1,3,740,0,0,17326,.IADD3,17308,17317,4,2,1,0,0,0,6,0,3,0,-1,2,32,0,0,-1,0x7f0,-1,-1,-1,0 
1,3,741,0,0,17326,.BSSY,17317,17318,4,0,0,0,0,0,100,0,7,0,-1,4,32,0,0,-1,0x800,-1,-1,-1,0 
1,3,742,0,0,17328,.ISETP.GT.AND,17317,17319,4,2,0,0,0,0,6,0,3,0,-1,2,32,0,0,-1,0x810,-1,-1,-1,0 
1,3,743,0,0,17335,.ISETP.GE.AND,17319,17326,4,2,0,0,0,0,6,0,3,0,-1,2,32,0,0,-1,0x820,-1,-1,-1,0 
1,3,744,0,0,17336,.ISETP.LT.OR,17319,17327,4,2,0,0,0,0,6,0,3,0,-1,2,32,0,0,-1,0x830,-1,-1,-1,0 
1,3,745,0,0,17337,.ISETP.LE.AND,17327,17328,4,2,0,0,0,0,6,0,3,0,-1,2,32,0,0,-1,0x840,-1,-1,-1,0 
1,3,746,0,0,17337,.PLOP3.LUT,17327,17329,4,0,0,0,0,0,1,0,3,0,-1,2,32,0,0,-1,0x850,-1,-1,-1,0 
1,3,747,0,0,17339,.PRMT,17329,17330,4,2,1,0,0,0,1,0,3,0,-1,2,32,0,0,-1,0x860,-1,-1,-1,0 
1,3,748,0,0,17339,.PLOP3.LUT,17329,17331,4,0,0,0,0,0,1,0,3,0,-1,2,32,0,0,-1,0x870,-1,-1,-1,0 
1,3,749,0,0,17340,.BRA,17331,17332,4,0,0,0,0,0,100,0,7,0,-1,4,32,0,0,-1,0x880,-1,-1,-1,0 
1,3,752,0,0,17340,.BAR.SYNC,17333,17335,1,0,0,0,0,0,13,0,3,0,-1,1,32,0,0,-1,0xa40,1,-1,-1,0 
1,3,750,0,0,17341,.BSYNC,17331,17333,4,0,0,0,0,0,100,0,7,0,-1,4,32,0,0,-1,0xa20,-1,-1,-1,0 
1,3,751,0,0,17342,.NOP,17333,17334,4,0,0,0,0,0,1,0,3,0,-1,2,32,0,0,-1,0xa30,-1,-1,-1,0 
1,3,753,0,0,17345,.ISETP.NE.AND,17335,17336,4,2,0,0,0,0,6,0,3,0,-1,2,32,0,0,-1,0xa50,-1,-1,-1,0 
1,3,754,0,0,17345,.BRA,17335,17337,4,0,0,0,0,0,100,0,7,0,-1,4,0,0,0,-1,0xa60,-1,-1,-1,0 
1,3,755,0,0,17348,.PRMT,17337,17339,4,2,1,0,0,0,1,0,3,0,-1,2,32,0,0,-1,0xa70,-1,-1,-1,0 
1,3,756,0,0,17349,.IADD3,17337,17340,4,2,1,0,0,0,6,0,3,0,-1,2,32,0,0,-1,0xa80,-1,-1,-1,0 
1,3,757,0,0,17357,.ISETP.NE.AND,17340,17348,4,2,0,0,0,0,6,0,3,0,-1,2,32,0,0,-1,0xa90,-1,-1,-1,0 
1,3,758,0,0,17373,.LDS.U,17340,17349,1,1,1,1,0,4,8,0,6,0,-1,1,0,0,0,-1,0xaa0,-1,-1,-1,0 
1,3,759,0,0,17376,.STS,17349,17373,1,2,0,0,1,4,11,0,6,0,-1,1,0,0,0,-1,0xab0,-1,-1,-1,0 
1,3,761,0,0,17380,.BAR.SYNC,17374,17375,1,0,0,0,0,0,13,0,3,0,-1,1,32,0,0,-1,0xad0,1,-1,-1,0 
1,3,760,0,0,17382,.NOP,17349,17374,4,0,0,0,0,0,1,0,3,0,-1,2,32,0,0,-1,0xac0,-1,-1,-1,0 
1,3,762,0,0,17385,.ISETP.GE.AND,17374,17376,4,1,0,0,0,0,6,0,3,0,-1,2,32,0,0,-1,0xae0,-1,-1,-1,0 
1,3,763,0,0,17385,.BRA,17376,17377,4,0,0,0,0,0,100,0,7,0,-1,4,32,0,0,-1,0xaf0,-1,-1,-1,0 
1,3,764,0,0,17388,.SHFL.IDX,17376,17378,4,4,0,0,0,0,1,0,3,0,-1,2,0,0,0,-1,0x7c0,-1,-1,-1,0 
1,3,766,0,0,17388,.BMOV.32.CLEAR,17378,17380,4,0,1,0,0,0,100,0,7,0,-1,4,32,0,0,-1,0x7e0,-1,-1,-1,0 
1,3,765,0,0,17389,.IADD3,17378,17379,4,2,1,0,0,0,6,0,3,0,-1,2,32,0,0,-1,0x7d0,-1,-1,-1,0 
1,3,767,0,0,17397,.IADD3,17380,17388,4,2,1,0,0,0,6,0,3,0,-1,2,32,0,0,-1,0x7f0,-1,-1,-1,0 
1,3,768,0,0,17397,.BSSY,17380,17389,4,0,0,0,0,0,100,0,7,0,-1,4,32,0,0,-1,0x800,-1,-1,-1,0 
1,3,769,0,0,17399,.ISETP.GT.AND,17389,17390,4,2,0,0,0,0,6,0,3,0,-1,2,32,0,0,-1,0x810,-1,-1,-1,0 
1,3,770,0,0,17406,.ISETP.GE.AND,17389,17397,4,2,0,0,0,0,6,0,3,0,-1,2,32,0,0,-1,0x820,-1,-1,-1,0 
1,3,771,0,0,17407,.ISETP.LT.OR,17397,17398,4,2,0,0,0,0,6,0,3,0,-1,2,32,0,0,-1,0x830,-1,-1,-1,0 
1,3,772,0,0,17408,.ISETP.LE.AND,17397,17399,4,2,0,0,0,0,6,0,3,0,-1,2,32,0,0,-1,0x840,-1,-1,-1,0 
1,3,773,0,0,17408,.PLOP3.LUT,17399,17400,4,0,0,0,0,0,1,0,3,0,-1,2,32,0,0,-1,0x850,-1,-1,-1,0 
1,3,774,0,0,17410,.PRMT,17399,17401,4,2,1,0,0,0,1,0,3,0,-1,2,32,0,0,-1,0x860,-1,-1,-1,0 
1,3,775,0,0,17410,.PLOP3.LUT,17401,17402,4,0,0,0,0,0,1,0,3,0,-1,2,32,0,0,-1,0x870,-1,-1,-1,0 
1,3,776,0,0,17411,.BRA,17401,17403,4,0,0,0,0,0,100,0,7,0,-1,4,32,0,0,-1,0x880,-1,-1,-1,0 
1,3,779,0,0,17411,.BAR.SYNC,17405,17406,1,0,0,0,0,0,13,0,3,0,-1,1,32,0,0,-1,0xa40,1,-1,-1,0 
1,3,777,0,0,17412,.BSYNC,17403,17404,4,0,0,0,0,0,100,0,7,0,-1,4,32,0,0,-1,0xa20,-1,-1,-1,0 
1,3,778,0,0,17413,.NOP,17403,17405,4,0,0,0,0,0,1,0,3,0,-1,2,32,0,0,-1,0xa30,-1,-1,-1,0 
1,3,780,0,0,17416,.ISETP.NE.AND,17405,17407,4,2,0,0,0,0,6,0,3,0,-1,2,32,0,0,-1,0xa50,-1,-1,-1,0 
1,3,781,0,0,17416,.BRA,17407,17408,4,0,0,0,0,0,100,0,7,0,-1,4,0,0,0,-1,0xa60,-1,-1,-1,0 
1,3,782,0,0,17419,.PRMT,17407,17410,4,2,1,0,0,0,1,0,3,0,-1,2,32,0,0,-1,0xa70,-1,-1,-1,0 
1,3,783,0,0,17420,.IADD3,17410,17411,4,2,1,0,0,0,6,0,3,0,-1,2,32,0,0,-1,0xa80,-1,-1,-1,0 
1,3,784,0,0,17428,.ISETP.NE.AND,17410,17419,4,2,0,0,0,0,6,0,3,0,-1,2,32,0,0,-1,0xa90,-1,-1,-1,0 
1,3,785,0,0,17444,.LDS.U,17419,17420,1,1,1,1,0,4,8,0,6,0,-1,1,0,0,0,-1,0xaa0,-1,-1,-1,0 
1,3,786,0,0,17447,.STS,17419,17444,1,2,0,0,1,4,11,0,6,0,-1,1,0,0,0,-1,0xab0,-1,-1,-1,0 
1,3,788,0,0,17451,.BAR.SYNC,17444,17446,1,0,0,0,0,0,13,0,3,0,-1,1,32,0,0,-1,0xad0,1,-1,-1,0 
1,3,787,0,0,17453,.NOP,17444,17445,4,0,0,0,0,0,1,0,3,0,-1,2,32,0,0,-1,0xac0,-1,-1,-1,0 
1,3,789,0,0,17456,.ISETP.GE.AND,17446,17447,4,1,0,0,0,0,6,0,3,0,-1,2,32,0,0,-1,0xae0,-1,-1,-1,0 
1,3,790,0,0,17456,.BRA,17446,17448,4,0,0,0,0,0,100,0,7,0,-1,4,32,0,0,-1,0xaf0,-1,-1,-1,0 
1,3,791,0,0,17459,.SHFL.IDX,17448,17449,4,4,0,0,0,0,1,0,3,0,-1,2,0,0,0,-1,0x7c0,-1,-1,-1,0 
1,3,793,0,0,17459,.BMOV.32.CLEAR,17450,17451,4,0,1,0,0,0,100,0,7,0,-1,4,32,0,0,-1,0x7e0,-1,-1,-1,0 
1,3,792,0,0,17460,.IADD3,17448,17450,4,2,1,0,0,0,6,0,3,0,-1,2,32,0,0,-1,0x7d0,-1,-1,-1,0 
1,3,794,0,0,17468,.IADD3,17450,17459,4,2,1,0,0,0,6,0,3,0,-1,2,32,0,0,-1,0x7f0,-1,-1,-1,0 
1,3,795,0,0,17468,.BSSY,17459,17460,4,0,0,0,0,0,100,0,7,0,-1,4,32,0,0,-1,0x800,-1,-1,-1,0 
1,3,796,0,0,17470,.ISETP.GT.AND,17459,17461,4,2,0,0,0,0,6,0,3,0,-1,2,32,0,0,-1,0x810,-1,-1,-1,0 
1,3,797,0,0,17477,.ISETP.GE.AND,17461,17468,4,2,0,0,0,0,6,0,3,0,-1,2,32,0,0,-1,0x820,-1,-1,-1,0 
1,3,798,0,0,17478,.ISETP.LT.OR,17461,17469,4,2,0,0,0,0,6,0,3,0,-1,2,32,0,0,-1,0x830,-1,-1,-1,0 
1,3,799,0,0,17479,.ISETP.LE.AND,17469,17470,4,2,0,0,0,0,6,0,3,0,-1,2,32,0,0,-1,0x840,-1,-1,-1,0 
1,3,800,0,0,17479,.PLOP3.LUT,17469,17471,4,0,0,0,0,0,1,0,3,0,-1,2,32,0,0,-1,0x850,-1,-1,-1,0 
1,3,801,0,0,17481,.PRMT,17471,17472,4,2,1,0,0,0,1,0,3,0,-1,2,32,0,0,-1,0x860,-1,-1,-1,0 
1,3,802,0,0,17481,.PLOP3.LUT,17471,17473,4,0,0,0,0,0,1,0,3,0,-1,2,32,0,0,-1,0x870,-1,-1,-1,0 
1,3,803,0,0,17482,.BRA,17473,17474,4,0,0,0,0,0,100,0,7,0,-1,4,32,0,0,-1,0x880,-1,-1,-1,0 
1,3,806,0,0,17482,.BAR.SYNC,17475,17477,1,0,0,0,0,0,13,0,3,0,-1,1,32,0,0,-1,0xa40,1,-1,-1,0 
1,3,804,0,0,17483,.BSYNC,17473,17475,4,0,0,0,0,0,100,0,7,0,-1,4,32,0,0,-1,0xa20,-1,-1,-1,0 
1,3,805,0,0,17484,.NOP,17475,17476,4,0,0,0,0,0,1,0,3,0,-1,2,32,0,0,-1,0xa30,-1,-1,-1,0 
1,3,807,0,0,17487,.ISETP.NE.AND,17477,17478,4,2,0,0,0,0,6,0,3,0,-1,2,32,0,0,-1,0xa50,-1,-1,-1,0 
1,3,808,0,0,17487,.BRA,17477,17479,4,0,0,0,0,0,100,0,7,0,-1,4,0,0,0,-1,0xa60,-1,-1,-1,0 
1,3,809,0,0,17490,.PRMT,17479,17481,4,2,1,0,0,0,1,0,3,0,-1,2,32,0,0,-1,0xa70,-1,-1,-1,0 
1,3,810,0,0,17491,.IADD3,17479,17482,4,2,1,0,0,0,6,0,3,0,-1,2,32,0,0,-1,0xa80,-1,-1,-1,0 
1,3,811,0,0,17499,.ISETP.NE.AND,17482,17490,4,2,0,0,0,0,6,0,3,0,-1,2,32,0,0,-1,0xa90,-1,-1,-1,0 
1,3,812,0,0,17515,.LDS.U,17482,17491,1,1,1,1,0,4,8,0,6,0,-1,1,0,0,0,-1,0xaa0,-1,-1,-1,0 
1,3,813,0,0,17518,.STS,17491,17515,1,2,0,0,1,4,11,0,6,0,-1,1,0,0,0,-1,0xab0,-1,-1,-1,0 
1,3,815,0,0,17522,.BAR.SYNC,17516,17517,1,0,0,0,0,0,13,0,3,0,-1,1,32,0,0,-1,0xad0,1,-1,-1,0 
1,3,814,0,0,17524,.NOP,17491,17516,4,0,0,0,0,0,1,0,3,0,-1,2,32,0,0,-1,0xac0,-1,-1,-1,0 
1,3,816,0,0,17527,.ISETP.GE.AND,17516,17518,4,1,0,0,0,0,6,0,3,0,-1,2,32,0,0,-1,0xae0,-1,-1,-1,0 
1,3,817,0,0,17527,.BRA,17518,17519,4,0,0,0,0,0,100,0,7,0,-1,4,32,0,0,-1,0xaf0,-1,-1,-1,0 
1,3,818,0,0,17530,.SHFL.IDX,17518,17520,4,4,0,0,0,0,1,0,3,0,-1,2,0,0,0,-1,0x7c0,-1,-1,-1,0 
1,3,820,0,0,17530,.BMOV.32.CLEAR,17520,17522,4,0,1,0,0,0,100,0,7,0,-1,4,32,0,0,-1,0x7e0,-1,-1,-1,0 
1,3,819,0,0,17531,.IADD3,17520,17521,4,2,1,0,0,0,6,0,3,0,-1,2,32,0,0,-1,0x7d0,-1,-1,-1,0 
1,3,821,0,0,17539,.IADD3,17522,17530,4,2,1,0,0,0,6,0,3,0,-1,2,32,0,0,-1,0x7f0,-1,-1,-1,0 
1,3,822,0,0,17539,.BSSY,17522,17531,4,0,0,0,0,0,100,0,7,0,-1,4,32,0,0,-1,0x800,-1,-1,-1,0 
1,3,823,0,0,17541,.ISETP.GT.AND,17531,17532,4,2,0,0,0,0,6,0,3,0,-1,2,32,0,0,-1,0x810,-1,-1,-1,0 
1,3,824,0,0,17548,.ISETP.GE.AND,17531,17539,4,2,0,0,0,0,6,0,3,0,-1,2,32,0,0,-1,0x820,-1,-1,-1,0 
1,3,825,0,0,17549,.ISETP.LT.OR,17539,17540,4,2,0,0,0,0,6,0,3,0,-1,2,32,0,0,-1,0x830,-1,-1,-1,0 
1,3,826,0,0,17550,.ISETP.LE.AND,17539,17541,4,2,0,0,0,0,6,0,3,0,-1,2,32,0,0,-1,0x840,-1,-1,-1,0 
1,3,827,0,0,17550,.PLOP3.LUT,17541,17542,4,0,0,0,0,0,1,0,3,0,-1,2,32,0,0,-1,0x850,-1,-1,-1,0 
1,3,828,0,0,17552,.PRMT,17541,17543,4,2,1,0,0,0,1,0,3,0,-1,2,32,0,0,-1,0x860,-1,-1,-1,0 
1,3,829,0,0,17552,.PLOP3.LUT,17543,17544,4,0,0,0,0,0,1,0,3,0,-1,2,32,0,0,-1,0x870,-1,-1,-1,0 
1,3,830,0,0,17553,.BRA,17543,17545,4,0,0,0,0,0,100,0,7,0,-1,4,32,0,0,-1,0x880,-1,-1,-1,0 
1,3,833,0,0,17553,.BAR.SYNC,17547,17548,1,0,0,0,0,0,13,0,3,0,-1,1,32,0,0,-1,0xa40,1,-1,-1,0 
1,3,831,0,0,17554,.BSYNC,17545,17546,4,0,0,0,0,0,100,0,7,0,-1,4,32,0,0,-1,0xa20,-1,-1,-1,0 
1,3,832,0,0,17555,.NOP,17545,17547,4,0,0,0,0,0,1,0,3,0,-1,2,32,0,0,-1,0xa30,-1,-1,-1,0 
1,3,834,0,0,17558,.ISETP.NE.AND,17547,17549,4,2,0,0,0,0,6,0,3,0,-1,2,32,0,0,-1,0xa50,-1,-1,-1,0 
1,3,835,0,0,17558,.BRA,17549,17550,4,0,0,0,0,0,100,0,7,0,-1,4,32,0,0,-1,0xa60,-1,-1,-1,0 
[...]
1,7,1690,0,0,40166,.IMAD.IADD,40148,40157,4,2,1,0,0,0,6,0,3,0,-1,2,32,0,0,-1,0xf0,-1,-1,-1,0 
1,7,1691,0,0,40174,.ISETP.GT.AND,40157,40165,4,2,0,0,0,0,6,0,3,0,-1,2,32,0,0,-1,0x100,-1,-1,-1,0 
1,7,1692,0,0,40175,.ISETP.GT.AND,40157,40166,4,2,0,0,0,0,6,0,3,0,-1,2,32,0,0,-1,0x110,-1,-1,-1,0 
1,7,1693,0,0,40176,.ISETP.GT.AND,40166,40167,4,1,0,0,0,0,6,0,3,0,-1,2,32,0,0,-1,0x120,-1,-1,-1,0 
1,7,1694,0,0,40177,.IMAD,40166,40168,4,2,1,0,0,0,6,0,3,0,-1,2,32,0,0,-1,0x130,-1,-1,-1,0 
1,7,1695,0,0,40178,.ISETP.GT.AND,40168,40169,4,1,0,0,0,0,6,0,3,0,-1,2,32,0,0,-1,0x140,-1,-1,-1,0 
1,7,1696,0,0,40186,.IMAD.WIDE,40168,40177,4,2,1,0,0,0,6,0,3,0,-1,2,32,0,0,-1,0x150,-1,-1,-1,0 
1,7,1697,0,0,40186,.PLOP3.LUT,40177,40178,4,0,0,0,0,0,1,0,3,0,-1,2,32,0,0,-1,0x160,-1,-1,-1,0 
1,7,1698,0,0,40188,.IMAD.WIDE,40177,40179,4,2,1,0,0,0,6,0,3,0,-1,2,0,0,0,-1,0x170,-1,-1,-1,0 
1,7,1699,0,0,40189,.LDG.E.SYS,40179,40186,1,1,1,1,0,4,8,0,6,0,-1,1,0,0,0,-1,0x180,-1,-1,-1,1 
1,7,1700,0,0,40191,.LDG.E.SYS,40179,40188,1,1,1,1,0,4,8,0,6,0,-1,1,0,0,0,-1,0x190,-1,-1,-1,1 
1,7,1701,0,0,40198,.IMAD.MOV.U32,40188,40189,4,2,1,0,0,0,6,0,3,0,-1,2,32,0,0,-1,0x1a0,-1,-1,-1,0 
1,7,1702,0,0,40199,.IADD3,40188,40190,4,2,1,0,0,0,6,0,3,0,-1,2,32,0,0,-1,0x1b0,-1,-1,-1,0 
1,7,1703,0,0,40200,.IMAD.SHL.U32,40190,40191,4,2,1,0,0,0,6,0,3,0,-1,2,32,0,0,-1,0x1c0,-1,-1,-1,0 
1,7,1704,0,0,40201,.IADD3,40190,40192,4,2,1,0,0,0,6,0,3,0,-1,2,32,0,0,-1,0x1d0,-1,-1,-1,0 
1,7,1705,0,0,40202,.IMAD.SHL.U32,40192,40193,4,2,1,0,0,0,6,0,3,0,-1,2,32,0,0,-1,0x1e0,-1,-1,-1,0 
1,7,1706,0,0,40207,.ISETP.LE.AND,40192,40198,4,1,0,0,0,0,6,0,3,0,-1,2,32,0,0,-1,0x1f0,-1,-1,-1,0 
1,7,1707,0,0,40208,.IADD3,40198,40199,4,2,1,0,0,0,6,0,3,0,-1,2,32,0,0,-1,0x200,-1,-1,-1,0 
1,7,1708,0,0,40211,.IMAD.IADD,40198,40202,4,2,1,0,0,0,6,0,3,0,-1,2,32,0,0,-1,0x210,-1,-1,-1,0 
1,7,1709,0,0,40212,.IADD3,40202,40203,4,2,1,0,0,0,6,0,3,0,-1,2,32,0,0,-1,0x220,-1,-1,-1,0 
1,7,1710,0,0,40217,.IADD3,40202,40208,4,2,1,0,0,0,6,0,3,0,-1,2,32,0,0,-1,0x230,-1,-1,-1,0 
1,7,1711,0,0,40218,.IADD3,40208,40209,4,2,1,0,0,0,6,0,3,0,-1,2,32,0,0,-1,0x240,-1,-1,-1,0 
1,7,1712,0,0,40219,.ISETP.GT.AND,40208,40210,4,2,0,0,0,0,6,0,3,0,-1,2,32,0,0,-1,0x250,-1,-1,-1,0 
1,7,1714,0,0,40221,.STS,40210,40218,1,2,0,0,1,4,11,0,6,0,-1,1,0,0,0,-1,0x270,-1,-1,-1,0 
1,7,1715,0,0,40222,.STS,40218,40219,1,2,0,0,1,4,11,0,6,0,-1,1,0,0,0,-1,0x280,-1,-1,-1,0 
1,7,1713,0,0,40226,.IADD3,40210,40217,4,2,1,0,0,0,6,0,3,0,-1,2,32,0,0,-1,0x260,-1,-1,-1,0 
1,7,1717,0,0,40226,.BAR.SYNC,40220,40221,1,0,0,0,0,0,13,0,3,0,-1,1,32,0,0,-1,0x2a0,1,-1,-1,0 
1,7,1716,0,0,40228,.NOP,40218,40220,4,0,0,0,0,0,1,0,3,0,-1,2,32,0,0,-1,0x290,-1,-1,-1,0 
1,7,1718,0,0,40231,.ISETP.GT.AND,40220,40222,4,2,0,0,0,0,6,0,3,0,-1,2,32,0,0,-1,0x2b0,-1,-1,-1,0 
1,7,1719,0,0,40232,.IADD3,40222,40223,4,2,1,0,0,0,6,0,3,0,-1,2,32,0,0,-1,0x2c0,-1,-1,-1,0 
1,7,1720,0,0,40235,.SEL,40222,40226,4,1,1,0,0,0,1,0,3,0,-1,2,32,0,0,-1,0x2d0,-1,-1,-1,0 
1,7,1721,0,0,40241,.SEL,40226,40232,4,1,1,0,0,0,1,0,3,0,-1,2,32,0,0,-1,0x2e0,-1,-1,-1,0 
1,7,1722,0,0,40241,.BRA,40226,40233,4,0,0,0,0,0,100,0,7,0,-1,4,0,0,0,-1,0x2f0,-1,-1,-1,0 
1,7,1723,0,0,40244,.IMAD.MOV,40233,40234,4,3,1,0,0,0,6,0,3,0,-1,2,32,0,0,-1,0x300,-1,-1,-1,0 
1,7,1724,0,0,40245,.SHF.R.S32.HI,40233,40235,4,2,1,0,0,0,6,0,3,0,-1,2,32,0,0,-1,0x310,-1,-1,-1,0 
1,7,1725,0,0,40246,.IMAD.MOV,40235,40236,4,3,1,0,0,0,6,0,3,0,-1,2,32,0,0,-1,0x320,-1,-1,-1,0 
1,7,1726,0,0,40246,.SHF.R.S32.HI,40235,40237,4,2,1,0,0,0,6,0,3,0,-1,2,32,0,0,-1,0x330,-1,-1,-1,0 
1,7,1727,0,0,40248,.IMAD.MOV.U32,40237,40238,4,3,1,0,0,0,6,0,3,0,-1,2,32,0,0,-1,0x340,-1,-1,-1,0 
1,7,1728,0,0,40254,.LOP3.LUT,40237,40245,4,3,1,0,0,0,6,0,3,0,-1,2,32,0,0,-1,0x350,-1,-1,-1,0 
1,7,1729,0,0,40255,.LOP3.LUT,40245,40246,4,3,1,0,0,0,6,0,3,0,-1,2,32,0,0,-1,0x360,-1,-1,-1,0 
1,7,1730,0,0,40255,.MOV,40245,40247,4,0,1,0,0,0,1,0,3,0,-1,2,32,0,0,-1,0x370,-1,-1,-1,0 
1,7,1731,0,0,40256,.CALL.REL.NOINC,40247,40248,4,0,0,0,0,0,100,0,7,0,-1,4,32,0,0,-1,0x380,-1,-1,-1,0 
1,7,1732,0,0,40259,.SHFL.IDX,40247,40249,4,4,0,0,0,0,1,0,3,0,-1,2,0,0,0,-1,0xe90,-1,-1,-1,0 
1,7,1733,0,0,40260,.IMAD.MOV.U32,40249,40250,4,2,1,0,0,0,6,0,3,0,-1,2,32,0,0,-1,0xea0,-1,-1,-1,0 
1,7,1734,0,0,40269,.FCHK,40249,40260,4,1,0,0,0,0,5,0,1,0,-1,2,32,0,0,-1,0xeb0,-1,-1,-1,0 
1,7,1735,0,0,40269,.BRA,40260,40261,4,0,0,0,0,0,100,0,7,0,-1,4,0,0,0,-1,0xec0,-1,-1,-1,0 
1,7,1737,0,0,40272,.FADD.FTZ,40262,40263,4,1,1,0,0,0,5,0,1,0,-1,2,32,0,0,-1,0xee0,-1,-1,-1,0 
1,7,1736,0,0,40286,.MUFU.RCP,40260,40262,20,0,1,0,0,0,2,0,4,0,-1,8,32,0,0,-1,0xed0,-1,-1,-1,0 
1,7,1738,0,0,40295,.FFMA,40262,40286,4,2,1,0,0,0,5,0,1,0,-1,2,32,0,0,-1,0xef0,-1,-1,-1,0 
1,7,1739,0,0,40304,.FFMA,40286,40295,4,3,1,0,0,0,5,0,1,0,-1,2,32,0,0,-1,0xf00,-1,-1,-1,0 
1,7,1740,0,0,40313,.FFMA,40286,40304,4,2,1,0,0,0,5,0,1,0,-1,2,32,0,0,-1,0xf10,-1,-1,-1,0 
1,7,1741,0,0,40322,.FFMA,40304,40313,4,2,1,0,0,0,5,0,1,0,-1,2,32,0,0,-1,0xf20,-1,-1,-1,0 
1,7,1742,0,0,40331,.FFMA,40304,40322,4,3,1,0,0,0,5,0,1,0,-1,2,32,0,0,-1,0xf30,-1,-1,-1,0 
1,7,1743,0,0,40332,.IMAD.MOV.U32,40322,40323,4,2,1,0,0,0,6,0,3,0,-1,2,32,0,0,-1,0xf40,-1,-1,-1,0 
1,7,1744,0,0,40340,.FFMA,40322,40331,4,2,1,0,0,0,5,0,1,0,-1,2,32,0,0,-1,0xf50,-1,-1,-1,0 
1,7,1745,0,0,40349,.FFMA,40331,40340,4,3,1,0,0,0,5,0,1,0,-1,2,32,0,0,-1,0xf60,-1,-1,-1,0 
1,7,1746,0,0,40349,.RET.REL.NODEC,40331,40341,4,0,1,0,0,0,100,0,7,0,-1,4,32,0,0,-1,0xf70,-1,-1,-1,0 
1,7,1747,0,0,40351,.IMAD.MOV.U32,40341,40342,4,2,1,0,0,0,6,0,3,0,-1,2,32,0,0,-1,0x390,-1,-1,-1,0 
1,7,1748,0,0,40352,.IADD3,40341,40343,4,2,1,0,0,0,6,0,3,0,-1,2,32,0,0,-1,0x3a0,-1,-1,-1,0 
1,7,1749,0,0,40353,.ISETP.GE.AND,40343,40344,4,2,0,0,0,0,6,0,3,0,-1,2,32,0,0,-1,0x3b0,-1,-1,-1,0 
1,7,1750,0,0,40360,.IADD3,40343,40351,4,2,1,0,0,0,6,0,3,0,-1,2,32,0,0,-1,0x3c0,-1,-1,-1,0 
1,7,1751,0,0,40361,.IADD3,40351,40352,4,2,1,0,0,0,6,0,3,0,-1,2,32,0,0,-1,0x3d0,-1,-1,-1,0 
1,7,1752,0,0,40369,.LOP3.LUT,40351,40360,4,2,1,0,0,0,6,0,3,0,-1,2,32,0,0,-1,0x3e0,-1,-1,-1,0 
1,7,1753,0,0,40370,.F2F.F64.F32,40360,40361,4,1,1,0,0,0,1,0,3,0,-1,2,32,0,0,-1,0x3f0,-1,-1,-1,0 
1,7,1754,0,0,40371,.ISETP.LT.AND,40360,40362,4,2,0,0,0,0,6,0,3,0,-1,2,32,0,0,-1,0x400,-1,-1,-1,0 
1,7,1755,0,0,40378,.ISETP.GT.U32.AND,40362,40369,4,1,0,0,0,0,6,0,3,0,-1,2,32,0,0,-1,0x410,-1,-1,-1,0 
1,7,1756,0,0,40379,.SEL,40362,40370,4,2,1,0,0,0,1,0,3,0,-1,2,32,0,0,-1,0x420,-1,-1,-1,0 
1,7,1757,0,0,40380,.SEL,40370,40371,4,2,1,0,0,0,1,0,3,0,-1,2,32,0,0,-1,0x430,-1,-1,-1,0 
1,7,1758,0,0,40388,.IMAD,40370,40379,4,2,1,0,0,0,6,0,3,0,-1,2,32,0,0,-1,0x440,-1,-1,-1,0 
1,7,1759,0,0,40389,.IMAD,40379,40380,4,2,1,0,0,0,6,0,3,0,-1,2,32,0,0,-1,0x450,-1,-1,-1,0 
1,7,1760,0,0,40389,.BRA,40379,40381,4,0,0,0,0,0,100,0,7,0,-1,4,32,0,0,-1,0x460,-1,-1,-1,0 
1,7,1761,0,0,40406,.MUFU.RCP,40381,40382,20,0,1,0,0,0,2,0,4,0,-1,8,32,0,0,-1,0x4c0,-1,-1,-1,0 
1,7,1762,0,0,40415,.FFMA,40381,40406,4,2,1,0,0,0,5,0,1,0,-1,2,32,0,0,-1,0x4d0,-1,-1,-1,0 
1,7,1763,0,0,40424,.FADD.FTZ,40406,40415,4,2,1,0,0,0,5,0,1,0,-1,2,32,0,0,-1,0x4e0,-1,-1,-1,0 
1,7,1764,0,0,40433,.FFMA,40406,40424,4,3,1,0,0,0,5,0,1,0,-1,2,32,0,0,-1,0x4f0,-1,-1,-1,0 
1,7,1765,0,0,40434,.IMAD.MOV.U32,40424,40425,4,2,1,0,0,0,6,0,3,0,-1,2,32,0,0,-1,0x500,-1,-1,-1,0 
1,7,1766,0,0,40435,.IADD3,40424,40426,4,2,1,0,0,0,6,0,3,0,-1,2,32,0,0,-1,0x510,-1,-1,-1,0 
1,7,1767,0,0,40436,.ISETP.GE.AND,40426,40427,4,2,0,0,0,0,6,0,3,0,-1,2,32,0,0,-1,0x520,-1,-1,-1,0 
1,7,1768,0,0,40443,.IADD3,40426,40434,4,2,1,0,0,0,6,0,3,0,-1,2,32,0,0,-1,0x530,-1,-1,-1,0 
1,7,1769,0,0,40444,.IADD3,40434,40435,4,2,1,0,0,0,6,0,3,0,-1,2,32,0,0,-1,0x540,-1,-1,-1,0 
1,7,1770,0,0,40452,.LOP3.LUT,40434,40443,4,2,1,0,0,0,6,0,3,0,-1,2,32,0,0,-1,0x550,-1,-1,-1,0 
1,7,1771,0,0,40453,.F2F.F64.F32,40443,40444,4,1,1,0,0,0,1,0,3,0,-1,2,32,0,0,-1,0x560,-1,-1,-1,0 
1,7,1772,0,0,40454,.ISETP.LT.AND,40443,40445,4,2,0,0,0,0,6,0,3,0,-1,2,32,0,0,-1,0x570,-1,-1,-1,0 
1,7,1773,0,0,40461,.ISETP.GT.U32.AND,40445,40452,4,1,0,0,0,0,6,0,3,0,-1,2,32,0,0,-1,0x580,-1,-1,-1,0 
1,7,1774,0,0,40462,.SEL,40445,40453,4,2,1,0,0,0,1,0,3,0,-1,2,32,0,0,-1,0x590,-1,-1,-1,0 
1,7,1775,0,0,40463,.SEL,40453,40454,4,2,1,0,0,0,1,0,3,0,-1,2,32,0,0,-1,0x5a0,-1,-1,-1,0 
1,7,1776,0,0,40471,.IMAD,40453,40462,4,2,1,0,0,0,6,0,3,0,-1,2,32,0,0,-1,0x5b0,-1,-1,-1,0 
1,7,1777,0,0,40472,.IMAD,40462,40463,4,2,1,0,0,0,6,0,3,0,-1,2,32,0,0,-1,0x5c0,-1,-1,-1,0 
1,7,1778,0,0,40472,.BRA,40462,40464,4,0,0,0,0,0,100,0,7,0,-1,4,32,0,0,-1,0x5d0,-1,-1,-1,0 
1,7,1779,0,0,40489,.MUFU.RCP,40464,40465,20,0,1,0,0,0,2,0,4,0,-1,8,32,0,0,-1,0x630,-1,-1,-1,0 
1,7,1780,0,0,40498,.FFMA,40464,40489,4,2,1,0,0,0,5,0,1,0,-1,2,32,0,0,-1,0x640,-1,-1,-1,0 
1,7,1781,0,0,40507,.FADD.FTZ,40489,40498,4,2,1,0,0,0,5,0,1,0,-1,2,32,0,0,-1,0x650,-1,-1,-1,0 
1,7,1782,0,0,40516,.FFMA,40489,40507,4,3,1,0,0,0,5,0,1,0,-1,2,32,0,0,-1,0x660,-1,-1,-1,0 
1,7,1783,0,0,40517,.IMAD.MOV.U32,40507,40508,4,2,1,0,0,0,6,0,3,0,-1,2,32,0,0,-1,0x670,-1,-1,-1,0 
1,7,1784,0,0,40518,.ISETP.GT.AND,40507,40509,4,2,0,0,0,0,6,0,3,0,-1,2,32,0,0,-1,0x680,-1,-1,-1,0 
1,7,1785,0,0,40519,.IMAD.MOV.U32,40509,40510,4,2,1,0,0,0,6,0,3,0,-1,2,32,0,0,-1,0x690,-1,-1,-1,0 
1,7,1786,0,0,40520,.ISETP.GT.AND,40509,40511,4,2,0,0,0,0,6,0,3,0,-1,2,32,0,0,-1,0x6a0,-1,-1,-1,0 
1,7,1787,0,0,40526,.IADD3,40511,40517,4,2,1,0,0,0,6,0,3,0,-1,2,32,0,0,-1,0x6b0,-1,-1,-1,0 
1,7,1788,0,0,40527,.F2F.F64.F32,40511,40518,4,1,1,0,0,0,1,0,3,0,-1,2,32,0,0,-1,0x6c0,-1,-1,-1,0 
1,7,1789,0,0,40528,.ISETP.LT.OR,40518,40519,4,2,0,0,0,0,6,0,3,0,-1,2,32,0,0,-1,0x6d0,-1,-1,-1,0 
1,7,1790,0,0,40535,.LOP3.LUT,40518,40526,4,2,1,0,0,0,6,0,3,0,-1,2,32,0,0,-1,0x6e0,-1,-1,-1,0 
1,7,1791,0,0,40536,.ISETP.LT.OR,40526,40527,4,2,0,0,0,0,6,0,3,0,-1,2,32,0,0,-1,0x6f0,-1,-1,-1,0 
1,7,1792,0,0,40544,.ISETP.GT.U32.AND,40526,40535,4,1,0,0,0,0,6,0,3,0,-1,2,32,0,0,-1,0x700,-1,-1,-1,0 
1,7,1793,0,0,40545,.IADD3,40535,40536,4,2,1,0,0,0,6,0,3,0,-1,2,32,0,0,-1,0x710,-1,-1,-1,0 
1,7,1794,0,0,40545,.BRA,40535,40537,4,0,0,0,0,0,100,0,7,0,-1,4,32,0,0,-1,0x720,-1,-1,-1,0 
1,7,1795,0,0,40562,.MUFU.RCP,40537,40538,20,0,1,0,0,0,2,0,4,0,-1,8,32,0,0,-1,0x780,-1,-1,-1,0 
1,7,1796,0,0,40571,.FFMA,40537,40562,4,2,1,0,0,0,5,0,1,0,-1,2,32,0,0,-1,0x790,-1,-1,-1,0 
1,7,1797,0,0,40580,.FADD.FTZ,40562,40571,4,2,1,0,0,0,5,0,1,0,-1,2,32,0,0,-1,0x7a0,-1,-1,-1,0 
1,7,1798,0,0,40589,.FFMA,40562,40580,4,3,1,0,0,0,5,0,1,0,-1,2,32,0,0,-1,0x7b0,-1,-1,-1,0 
1,7,1799,0,0,40591,.SHFL.IDX,40580,40581,4,4,0,0,0,0,1,0,3,0,-1,2,0,0,0,-1,0x7c0,-1,-1,-1,0 
1,7,1801,0,0,40591,.BMOV.32.CLEAR,40582,40583,4,0,1,0,0,0,100,0,7,0,-1,4,32,0,0,-1,0x7e0,-1,-1,-1,0 
1,7,1800,0,0,40592,.IADD3,40580,40582,4,2,1,0,0,0,6,0,3,0,-1,2,32,0,0,-1,0x7d0,-1,-1,-1,0 
1,7,1802,0,0,40600,.IADD3,40582,40591,4,2,1,0,0,0,6,0,3,0,-1,2,32,0,0,-1,0x7f0,-1,-1,-1,0 
1,7,1803,0,0,40600,.BSSY,40591,40592,4,0,0,0,0,0,100,0,7,0,-1,4,32,0,0,-1,0x800,-1,-1,-1,0 
1,7,1804,0,0,40602,.ISETP.GT.AND,40591,40593,4,2,0,0,0,0,6,0,3,0,-1,2,32,0,0,-1,0x810,-1,-1,-1,0 
1,7,1805,0,0,40609,.ISETP.GE.AND,40593,40600,4,2,0,0,0,0,6,0,3,0,-1,2,32,0,0,-1,0x820,-1,-1,-1,0 
1,7,1806,0,0,40610,.ISETP.LT.OR,40593,40601,4,2,0,0,0,0,6,0,3,0,-1,2,32,0,0,-1,0x830,-1,-1,-1,0 
1,7,1807,0,0,40611,.ISETP.LE.AND,40601,40602,4,2,0,0,0,0,6,0,3,0,-1,2,32,0,0,-1,0x840,-1,-1,-1,0 
1,7,1808,0,0,40611,.PLOP3.LUT,40601,40603,4,0,0,0,0,0,1,0,3,0,-1,2,32,0,0,-1,0x850,-1,-1,-1,0 
1,7,1809,0,0,40613,.PRMT,40603,40604,4,2,1,0,0,0,1,0,3,0,-1,2,32,0,0,-1,0x860,-1,-1,-1,0 
1,7,1810,0,0,40613,.PLOP3.LUT,40603,40605,4,0,0,0,0,0,1,0,3,0,-1,2,32,0,0,-1,0x870,-1,-1,-1,0 
1,7,1811,0,0,40614,.BRA,40605,40606,4,0,0,0,0,0,100,0,7,0,-1,4,32,0,0,-1,0x880,-1,-1,-1,0 
1,7,1814,0,0,40614,.BAR.SYNC,40607,40609,1,0,0,0,0,0,13,0,3,0,-1,1,32,0,0,-1,0xa40,1,-1,-1,0 
1,7,1812,0,0,40615,.BSYNC,40605,40607,4,0,0,0,0,0,100,0,7,0,-1,4,32,0,0,-1,0xa20,-1,-1,-1,0 
1,7,1813,0,0,40616,.NOP,40607,40608,4,0,0,0,0,0,1,0,3,0,-1,2,32,0,0,-1,0xa30,-1,-1,-1,0 
1,7,1815,0,0,40619,.ISETP.NE.AND,40609,40610,4,2,0,0,0,0,6,0,3,0,-1,2,32,0,0,-1,0xa50,-1,-1,-1,0 
1,7,1816,0,0,40619,.BRA,40609,40611,4,0,0,0,0,0,100,0,7,0,-1,4,0,0,0,-1,0xa60,-1,-1,-1,0 
1,7,1817,0,0,40622,.PRMT,40611,40613,4,2,1,0,0,0,1,0,3,0,-1,2,32,0,0,-1,0xa70,-1,-1,-1,0 
1,7,1818,0,0,40623,.IADD3,40611,40614,4,2,1,0,0,0,6,0,3,0,-1,2,32,0,0,-1,0xa80,-1,-1,-1,0 
1,7,1819,0,0,40631,.ISETP.NE.AND,40614,40622,4,2,0,0,0,0,6,0,3,0,-1,2,32,0,0,-1,0xa90,-1,-1,-1,0 
1,7,1820,0,0,40647,.LDS.U,40614,40623,1,1,1,1,0,4,8,0,6,0,-1,1,0,0,0,-1,0xaa0,-1,-1,-1,0 
1,7,1821,0,0,40650,.STS,40623,40647,1,2,0,0,1,4,11,0,6,0,-1,1,0,0,0,-1,0xab0,-1,-1,-1,0 
1,7,1823,0,0,40654,.BAR.SYNC,40648,40649,1,0,0,0,0,0,13,0,3,0,-1,1,32,0,0,-1,0xad0,1,-1,-1,0 
1,7,1822,0,0,40656,.NOP,40623,40648,4,0,0,0,0,0,1,0,3,0,-1,2,32,0,0,-1,0xac0,-1,-1,-1,0 
1,7,1824,0,0,40659,.ISETP.GE.AND,40648,40650,4,1,0,0,0,0,6,0,3,0,-1,2,32,0,0,-1,0xae0,-1,-1,-1,0 
1,7,1825,0,0,40659,.BRA,40650,40651,4,0,0,0,0,0,100,0,7,0,-1,4,32,0,0,-1,0xaf0,-1,-1,-1,0 
1,7,1826,0,0,40662,.SHFL.IDX,40650,40652,4,4,0,0,0,0,1,0,3,0,-1,2,0,0,0,-1,0x7c0,-1,-1,-1,0 
1,7,1828,0,0,40662,.BMOV.32.CLEAR,40652,40654,4,0,1,0,0,0,100,0,7,0,-1,4,32,0,0,-1,0x7e0,-1,-1,-1,0 
1,7,1827,0,0,40663,.IADD3,40652,40653,4,2,1,0,0,0,6,0,3,0,-1,2,32,0,0,-1,0x7d0,-1,-1,-1,0 
1,7,1829,0,0,40671,.IADD3,40654,40662,4,2,1,0,0,0,6,0,3,0,-1,2,32,0,0,-1,0x7f0,-1,-1,-1,0 
1,7,1830,0,0,40671,.BSSY,40654,40663,4,0,0,0,0,0,100,0,7,0,-1,4,32,0,0,-1,0x800,-1,-1,-1,0 
1,7,1831,0,0,40673,.ISETP.GT.AND,40663,40664,4,2,0,0,0,0,6,0,3,0,-1,2,32,0,0,-1,0x810,-1,-1,-1,0 
1,7,1832,0,0,40680,.ISETP.GE.AND,40663,40671,4,2,0,0,0,0,6,0,3,0,-1,2,32,0,0,-1,0x820,-1,-1,-1,0 
1,7,1833,0,0,40681,.ISETP.LT.OR,40671,40672,4,2,0,0,0,0,6,0,3,0,-1,2,32,0,0,-1,0x830,-1,-1,-1,0 
1,7,1834,0,0,40682,.ISETP.LE.AND,40671,40673,4,2,0,0,0,0,6,0,3,0,-1,2,32,0,0,-1,0x840,-1,-1,-1,0 
1,7,1835,0,0,40682,.PLOP3.LUT,40673,40674,4,0,0,0,0,0,1,0,3,0,-1,2,32,0,0,-1,0x850,-1,-1,-1,0 
1,7,1836,0,0,40684,.PRMT,40673,40675,4,2,1,0,0,0,1,0,3,0,-1,2,32,0,0,-1,0x860,-1,-1,-1,0 
1,7,1837,0,0,40684,.PLOP3.LUT,40675,40676,4,0,0,0,0,0,1,0,3,0,-1,2,32,0,0,-1,0x870,-1,-1,-1,0 
1,7,1838,0,0,40685,.BRA,40675,40677,4,0,0,0,0,0,100,0,7,0,-1,4,32,0,0,-1,0x880,-1,-1,-1,0 
1,7,1841,0,0,40685,.BAR.SYNC,40679,40680,1,0,0,0,0,0,13,0,3,0,-1,1,32,0,0,-1,0xa40,1,-1,-1,0 
1,7,1839,0,0,40686,.BSYNC,40677,40678,4,0,0,0,0,0,100,0,7,0,-1,4,32,0,0,-1,0xa20,-1,-1,-1,0 
1,7,1840,0,0,40687,.NOP,40677,40679,4,0,0,0,0,0,1,0,3,0,-1,2,32,0,0,-1,0xa30,-1,-1,-1,0 
1,7,1842,0,0,40690,.ISETP.NE.AND,40679,40681,4,2,0,0,0,0,6,0,3,0,-1,2,32,0,0,-1,0xa50,-1,-1,-1,0 
1,7,1843,0,0,40690,.BRA,40681,40682,4,0,0,0,0,0,100,0,7,0,-1,4,0,0,0,-1,0xa60,-1,-1,-1,0 
1,7,1844,0,0,40693,.PRMT,40681,40684,4,2,1,0,0,0,1,0,3,0,-1,2,32,0,0,-1,0xa70,-1,-1,-1,0 
1,7,1845,0,0,40694,.IADD3,40684,40685,4,2,1,0,0,0,6,0,3,0,-1,2,32,0,0,-1,0xa80,-1,-1,-1,0 
1,7,1846,0,0,40702,.ISETP.NE.AND,40684,40693,4,2,0,0,0,0,6,0,3,0,-1,2,32,0,0,-1,0xa90,-1,-1,-1,0 
1,7,1847,0,0,40718,.LDS.U,40693,40694,1,1,1,1,0,4,8,0,6,0,-1,1,0,0,0,-1,0xaa0,-1,-1,-1,0 
1,7,1848,0,0,40721,.STS,40693,40718,1,2,0,0,1,4,11,0,6,0,-1,1,0,0,0,-1,0xab0,-1,-1,-1,0 
1,7,1850,0,0,40725,.BAR.SYNC,40718,40720,1,0,0,0,0,0,13,0,3,0,-1,1,32,0,0,-1,0xad0,1,-1,-1,0 
1,7,1849,0,0,40727,.NOP,40718,40719,4,0,0,0,0,0,1,0,3,0,-1,2,32,0,0,-1,0xac0,-1,-1,-1,0 
1,7,1851,0,0,40730,.ISETP.GE.AND,40720,40721,4,1,0,0,0,0,6,0,3,0,-1,2,32,0,0,-1,0xae0,-1,-1,-1,0 
1,7,1852,0,0,40730,.BRA,40720,40722,4,0,0,0,0,0,100,0,7,0,-1,4,32,0,0,-1,0xaf0,-1,-1,-1,0 
1,7,1853,0,0,40733,.SHFL.IDX,40722,40723,4,4,0,0,0,0,1,0,3,0,-1,2,0,0,0,-1,0x7c0,-1,-1,-1,0 
1,7,1855,0,0,40733,.BMOV.32.CLEAR,40724,40725,4,0,1,0,0,0,100,0,7,0,-1,4,32,0,0,-1,0x7e0,-1,-1,-1,0 
1,7,1854,0,0,40734,.IADD3,40722,40724,4,2,1,0,0,0,6,0,3,0,-1,2,32,0,0,-1,0x7d0,-1,-1,-1,0 
1,7,1856,0,0,40742,.IADD3,40724,40733,4,2,1,0,0,0,6,0,3,0,-1,2,32,0,0,-1,0x7f0,-1,-1,-1,0 
1,7,1857,0,0,40742,.BSSY,40733,40734,4,0,0,0,0,0,100,0,7,0,-1,4,32,0,0,-1,0x800,-1,-1,-1,0 
1,7,1858,0,0,40744,.ISETP.GT.AND,40733,40735,4,2,0,0,0,0,6,0,3,0,-1,2,32,0,0,-1,0x810,-1,-1,-1,0 
1,7,1859,0,0,40751,.ISETP.GE.AND,40735,40742,4,2,0,0,0,0,6,0,3,0,-1,2,32,0,0,-1,0x820,-1,-1,-1,0 
1,7,1860,0,0,40752,.ISETP.LT.OR,40735,40743,4,2,0,0,0,0,6,0,3,0,-1,2,32,0,0,-1,0x830,-1,-1,-1,0 
1,7,1861,0,0,40753,.ISETP.LE.AND,40743,40744,4,2,0,0,0,0,6,0,3,0,-1,2,32,0,0,-1,0x840,-1,-1,-1,0 
1,7,1862,0,0,40753,.PLOP3.LUT,40743,40745,4,0,0,0,0,0,1,0,3,0,-1,2,32,0,0,-1,0x850,-1,-1,-1,0 
1,7,1863,0,0,40755,.PRMT,40745,40746,4,2,1,0,0,0,1,0,3,0,-1,2,32,0,0,-1,0x860,-1,-1,-1,0 
1,7,1864,0,0,40755,.PLOP3.LUT,40745,40747,4,0,0,0,0,0,1,0,3,0,-1,2,32,0,0,-1,0x870,-1,-1,-1,0 
1,7,1865,0,0,40756,.BRA,40747,40748,4,0,0,0,0,0,100,0,7,0,-1,4,32,0,0,-1,0x880,-1,-1,-1,0 
1,7,1868,0,0,40756,.BAR.SYNC,40749,40751,1,0,0,0,0,0,13,0,3,0,-1,1,32,0,0,-1,0xa40,1,-1,-1,0 
1,7,1866,0,0,40757,.BSYNC,40747,40749,4,0,0,0,0,0,100,0,7,0,-1,4,32,0,0,-1,0xa20,-1,-1,-1,0 
1,7,1867,0,0,40758,.NOP,40749,40750,4,0,0,0,0,0,1,0,3,0,-1,2,32,0,0,-1,0xa30,-1,-1,-1,0 
1,7,1869,0,0,40761,.ISETP.NE.AND,40751,40752,4,2,0,0,0,0,6,0,3,0,-1,2,32,0,0,-1,0xa50,-1,-1,-1,0 
1,7,1870,0,0,40761,.BRA,40751,40753,4,0,0,0,0,0,100,0,7,0,-1,4,0,0,0,-1,0xa60,-1,-1,-1,0 
1,7,1871,0,0,40764,.PRMT,40753,40755,4,2,1,0,0,0,1,0,3,0,-1,2,32,0,0,-1,0xa70,-1,-1,-1,0 
1,7,1872,0,0,40765,.IADD3,40753,40756,4,2,1,0,0,0,6,0,3,0,-1,2,32,0,0,-1,0xa80,-1,-1,-1,0 
1,7,1873,0,0,40773,.ISETP.NE.AND,40756,40764,4,2,0,0,0,0,6,0,3,0,-1,2,32,0,0,-1,0xa90,-1,-1,-1,0 
1,7,1874,0,0,40789,.LDS.U,40756,40765,1,1,1,1,0,4,8,0,6,0,-1,1,0,0,0,-1,0xaa0,-1,-1,-1,0 
1,7,1875,0,0,40792,.STS,40765,40789,1,2,0,0,1,4,11,0,6,0,-1,1,0,0,0,-1,0xab0,-1,-1,-1,0 
1,7,1877,0,0,40796,.BAR.SYNC,40790,40791,1,0,0,0,0,0,13,0,3,0,-1,1,32,0,0,-1,0xad0,1,-1,-1,0 
1,7,1876,0,0,40798,.NOP,40765,40790,4,0,0,0,0,0,1,0,3,0,-1,2,32,0,0,-1,0xac0,-1,-1,-1,0 
1,7,1878,0,0,40801,.ISETP.GE.AND,40790,40792,4,1,0,0,0,0,6,0,3,0,-1,2,32,0,0,-1,0xae0,-1,-1,-1,0 
1,7,1879,0,0,40801,.BRA,40792,40793,4,0,0,0,0,0,100,0,7,0,-1,4,32,0,0,-1,0xaf0,-1,-1,-1,0 
1,7,1880,0,0,40804,.SHFL.IDX,40792,40794,4,4,0,0,0,0,1,0,3,0,-1,2,0,0,0,-1,0x7c0,-1,-1,-1,0 
1,7,1882,0,0,40804,.BMOV.32.CLEAR,40794,40796,4,0,1,0,0,0,100,0,7,0,-1,4,32,0,0,-1,0x7e0,-1,-1,-1,0 
1,7,1881,0,0,40805,.IADD3,40794,40795,4,2,1,0,0,0,6,0,3,0,-1,2,32,0,0,-1,0x7d0,-1,-1,-1,0 
1,7,1883,0,0,40813,.IADD3,40796,40804,4,2,1,0,0,0,6,0,3,0,-1,2,32,0,0,-1,0x7f0,-1,-1,-1,0 
1,7,1884,0,0,40813,.BSSY,40796,40805,4,0,0,0,0,0,100,0,7,0,-1,4,32,0,0,-1,0x800,-1,-1,-1,0 
1,7,1885,0,0,40815,.ISETP.GT.AND,40805,40806,4,2,0,0,0,0,6,0,3,0,-1,2,32,0,0,-1,0x810,-1,-1,-1,0 
1,7,1886,0,0,40822,.ISETP.GE.AND,40805,40813,4,2,0,0,0,0,6,0,3,0,-1,2,32,0,0,-1,0x820,-1,-1,-1,0 
1,7,1887,0,0,40823,.ISETP.LT.OR,40813,40814,4,2,0,0,0,0,6,0,3,0,-1,2,32,0,0,-1,0x830,-1,-1,-1,0 
1,7,1888,0,0,40824,.ISETP.LE.AND,40813,40815,4,2,0,0,0,0,6,0,3,0,-1,2,32,0,0,-1,0x840,-1,-1,-1,0 
1,7,1889,0,0,40824,.PLOP3.LUT,40815,40816,4,0,0,0,0,0,1,0,3,0,-1,2,32,0,0,-1,0x850,-1,-1,-1,0 
1,7,1890,0,0,40826,.PRMT,40815,40817,4,2,1,0,0,0,1,0,3,0,-1,2,32,0,0,-1,0x860,-1,-1,-1,0 
1,7,1891,0,0,40826,.PLOP3.LUT,40817,40818,4,0,0,0,0,0,1,0,3,0,-1,2,32,0,0,-1,0x870,-1,-1,-1,0 
1,7,1892,0,0,40827,.BRA,40817,40819,4,0,0,0,0,0,100,0,7,0,-1,4,32,0,0,-1,0x880,-1,-1,-1,0 
1,7,1895,0,0,40827,.BAR.SYNC,40821,40822,1,0,0,0,0,0,13,0,3,0,-1,1,32,0,0,-1,0xa40,1,-1,-1,0 
1,7,1893,0,0,40828,.BSYNC,40819,40820,4,0,0,0,0,0,100,0,7,0,-1,4,32,0,0,-1,0xa20,-1,-1,-1,0 
1,7,1894,0,0,40829,.NOP,40819,40821,4,0,0,0,0,0,1,0,3,0,-1,2,32,0,0,-1,0xa30,-1,-1,-1,0 
1,7,1896,0,0,40832,.ISETP.NE.AND,40821,40823,4,2,0,0,0,0,6,0,3,0,-1,2,32,0,0,-1,0xa50,-1,-1,-1,0 
1,7,1897,0,0,40832,.BRA,40823,40824,4,0,0,0,0,0,100,0,7,0,-1,4,32,0,0,-1,0xa60,-1,-1,-1,0 
1,7,1899,0,0,40832,.EXIT,40826,40827,1,0,0,0,0,0,17,0,3,0,-1,1,32,0,0,-1,0xb10,-1,-1,-1,0 
1,7,1898,0,0,40835,.LOP3.LUT,40823,40826,4,3,0,0,0,0,6,0,3,0,-1,2,32,0,0,-1,0xb00,-1,-1,-1,0 
Destroy streams for kernel 7: size 0


gpgpu_simulation_time = 0 days, 0 hrs, 0 min, 3 sec (3 sec)
gpgpu_simulation_rate = 18101 (inst/sec)
gpgpu_simulation_rate = 13612 (cycle/sec)
gpgpu_silicon_slowdown = 83161x
GPGPU-Sim: *** simulation thread exiting ***
GPGPU-Sim: *** exit detected ***
