

        *** GPGPU-Sim Simulator Version 4.0.0  [build gpgpu-sim_git-commit-90ec3399763d7c8512cfe7dc193473086c38ca38_modified_14.0] ***


addr_dec_mask[CHIP]  = 0000000000001f00 	high:13 low:8
addr_dec_mask[BK]    = 00000000000e2000 	high:20 low:13
addr_dec_mask[ROW]   = 00000001fff00000 	high:33 low:20
addr_dec_mask[COL]   = 000000000001c0ff 	high:17 low:0
addr_dec_mask[BURST] = 000000000000001f 	high:5 low:0
sub_partition_id_mask = 0000000000002000
GPGPU-Sim uArch: clock freqs: 1132000000.000000:1132000000.000000:1132000000.000000:850000000.000000
GPGPU-Sim uArch: clock periods: 0.00000000088339222615:0.00000000088339222615:0.00000000088339222615:0.00000000117647058824
GPGPU-Sim uArch: performance model initialization complete.
launching memcpy command : MemcpyHtoD,0x00007fb125700000,735000
-kernel name = _Z6euclidPcffPfiii
-kernel id = 1
-grid dim = (938,1,1)
-block dim = (16,1,1)
-shmem = 0
-nregs = 21
-binary version = 70
-cuda stream id = 0
-shmem base_addr = 0x00007fb15c000000
-local mem base_addr = 0x00007fb15e000000
-nvbit version = 1.4
-accelsim tracer version = 3
launching kernel command : /scratch/santosh/gpu_simulation/accel-sim-framework/traces/rodinia_2.0-ft/11.0/nn-rodinia-2.0-ft/__data_filelist_4_3_30_90___data_filelist_4_3_30_90_result_txt/traces/kernel-1.traceg
GPGPU-Sim uArch: Shader 0 bind to kernel 1 '_Z6euclidPcffPfiii'
GPGPU-Sim uArch: CTA/core = 32, limited by: cta_limit
GPGPU-Sim: Reconfigure L1 cache to 128KB
GPGPUsim: cta_size: 16
ctaid: 0, start warp: 0, end_warp: 1, start_thread: 0, end_thread: 16
thread block = 0,0,0
warp id: 0
warp_id: 0, insts: 130
1,1,1,0,0,5011,.IMAD.MOV.U32,5001,5002,4,2,1,0,0,0,6,0,3,0,-1,2,16,0,0,-1,0,-1,-1,-1,0 
1,1,3,0,0,5012,.S2R,5003,5004,4,0,1,0,0,0,1,0,3,0,-1,2,16,0,0,-1,0x20,-1,-1,-1,0 
1,1,2,0,0,5013,.SHFL.IDX,5001,5003,4,4,0,0,0,0,1,0,3,0,-1,2,0,0,0,-1,0x10,-1,-1,-1,0 
1,1,4,0,0,5013,.S2R,5003,5005,4,0,1,0,0,0,1,0,3,0,-1,2,16,0,0,-1,0x30,-1,-1,-1,0 
1,1,5,0,0,5022,.IMAD,5005,5013,4,2,1,0,0,0,6,0,3,0,-1,2,16,0,0,-1,0x40,-1,-1,-1,0 
1,1,7,0,0,5028,.EXIT,5022,5023,1,0,0,0,0,0,17,0,3,0,-1,1,0,0,0,-1,0x60,-1,-1,-1,0 
1,1,6,0,0,5031,.ISETP.GE.AND,5005,5022,4,1,0,0,0,0,6,0,3,0,-1,2,16,0,0,-1,0x50,-1,-1,-1,0 
1,1,8,0,0,5033,.IMAD.MOV.U32,5022,5024,4,2,1,0,0,0,6,0,3,0,-1,2,16,0,0,-1,0x70,-1,-1,-1,0 
1,1,9,0,0,5042,.IMAD,5024,5033,4,2,1,0,0,0,6,0,3,0,-1,2,16,0,0,-1,0x80,-1,-1,-1,0 
1,1,10,0,0,5051,.IADD3,5024,5042,4,2,1,0,0,0,6,0,3,0,-1,2,16,0,0,-1,0x90,-1,-1,-1,0 
1,1,11,0,0,5052,.LEA.HI.X.SX32,5042,5043,4,1,1,0,0,0,6,0,3,0,-1,2,16,0,0,-1,0xa0,-1,-1,-1,0 
1,1,20,0,0,5067,.BMOV.32.CLEAR,5057,5059,4,0,1,0,0,0,100,0,7,0,-1,4,16,0,0,-1,0x130,-1,-1,-1,0 
1,1,21,0,0,5068,.BSSY,5059,5060,4,0,0,0,0,0,100,0,7,0,-1,4,16,0,0,-1,0x140,-1,-1,-1,0 
1,1,12,0,0,5344,.LDG.E.U8.SYS,5042,5051,1,1,1,1,0,1,8,0,6,0,-1,1,16,0,0,-1,0xb0,-1,-1,-1,1 
1,1,13,0,0,5348,.LDG.E.U8.SYS,5051,5052,1,1,1,1,0,1,8,0,6,0,-1,1,16,0,0,-1,0xc0,-1,-1,-1,1 
1,1,14,0,0,5349,.LDG.E.U8.SYS,5051,5053,1,1,1,1,0,1,8,0,6,0,-1,1,16,0,0,-1,0xd0,-1,-1,-1,1 
1,1,22,0,0,5353,.PRMT,5059,5344,4,2,1,0,0,0,1,0,3,0,-1,2,16,0,0,-1,0x150,-1,-1,-1,0 
1,1,23,0,0,5358,.PRMT,5344,5348,4,2,1,0,0,0,1,0,3,0,-1,2,16,0,0,-1,0x160,-1,-1,-1,0 
1,1,16,0,0,5360,.LDG.E.U8.SYS,5053,5055,1,1,1,1,0,1,8,0,6,0,-1,1,16,0,0,-1,0xf0,-1,-1,-1,1 
1,1,24,0,0,5362,.ISETP.NE.AND,5344,5353,4,1,0,0,0,0,6,0,3,0,-1,2,16,0,0,-1,0x170,-1,-1,-1,0 
1,1,25,0,0,5363,.PRMT,5353,5354,4,2,1,0,0,0,1,0,3,0,-1,2,16,0,0,-1,0x180,-1,-1,-1,0 
1,1,15,0,0,5365,.LDG.E.U8.SYS,5053,5054,1,1,1,1,0,1,8,0,6,0,-1,1,16,0,0,-1,0xe0,-1,-1,-1,1 
1,1,17,0,0,5366,.LDG.E.U8.SYS,5055,5056,1,1,1,1,0,1,8,0,6,0,-1,1,16,0,0,-1,0x100,-1,-1,-1,1 
1,1,26,0,0,5367,.ISETP.NE.AND,5353,5358,4,1,0,0,0,0,6,0,3,0,-1,2,16,0,0,-1,0x190,-1,-1,-1,0 
1,1,18,0,0,5369,.LDG.E.U8.SYS,5055,5057,1,1,1,1,0,1,8,0,6,0,-1,1,16,0,0,-1,0x110,-1,-1,-1,1 
1,1,19,0,0,5371,.LDG.E.U8.SYS,5057,5058,1,1,1,1,0,1,8,0,6,0,-1,1,16,0,0,-1,0x120,-1,-1,-1,1 
1,1,27,0,0,5375,.PRMT,5358,5365,4,2,1,0,0,0,1,0,3,0,-1,2,16,0,0,-1,0x1a0,-1,-1,-1,0 
1,1,28,0,0,5375,.ISETP.NE.AND,5358,5366,4,1,0,0,0,0,6,0,3,0,-1,2,16,0,0,-1,0x1b0,-1,-1,-1,0 
1,1,29,0,0,5384,.ISETP.NE.AND,5366,5375,4,1,0,0,0,0,6,0,3,0,-1,2,16,0,0,-1,0x1c0,-1,-1,-1,0 
1,1,30,0,0,5385,.PRMT,5366,5376,4,2,1,0,0,0,1,0,3,0,-1,2,0,0,0,-1,0x1d0,-1,-1,-1,0 
1,1,31,0,0,5386,.IMAD.MOV.U32,5376,5377,4,2,1,0,0,0,6,0,3,0,-1,2,0,0,0,-1,0x1e0,-1,-1,-1,0 
1,1,32,0,0,5387,.PRMT,5376,5378,4,2,1,0,0,0,1,0,3,0,-1,2,15,0,0,-1,0x1f0,-1,-1,-1,0 
1,1,33,0,0,5388,.IMAD.MOV.U32,5378,5379,4,2,1,0,0,0,6,0,3,0,-1,2,15,0,0,-1,0x200,-1,-1,-1,0 
1,1,34,0,0,5395,.IMAD,5378,5386,4,2,1,0,0,0,6,0,3,0,-1,2,0,0,0,-1,0x210,-1,-1,-1,0 
1,1,35,0,0,5396,.PRMT,5386,5387,4,2,1,0,0,0,1,0,3,0,-1,2,16,0,0,-1,0x220,-1,-1,-1,0 
1,1,36,0,0,5397,.IMAD,5386,5388,4,2,1,0,0,0,6,0,3,0,-1,2,15,0,0,-1,0x230,-1,-1,-1,0 
1,1,37,0,0,5398,.PRMT,5388,5389,4,2,1,0,0,0,1,0,3,0,-1,2,7,0,0,-1,0x240,-1,-1,-1,0 
1,1,38,0,0,5400,.IMAD.MOV.U32,5388,5390,4,3,1,0,0,0,6,0,3,0,-1,2,16,0,0,-1,0x250,-1,-1,-1,0 
1,1,39,0,0,5405,.IMAD.MOV.U32,5390,5396,4,3,1,0,0,0,6,0,3,0,-1,2,16,0,0,-1,0x260,-1,-1,-1,0 
1,1,40,0,0,5407,.IMAD.MOV.U32,5390,5398,4,3,1,0,0,0,6,0,3,0,-1,2,7,0,0,-1,0x270,-1,-1,-1,0 
1,1,41,0,0,5408,.PRMT,5398,5399,4,2,1,0,0,0,1,0,3,0,-1,2,16,0,0,-1,0x280,-1,-1,-1,0 
1,1,42,0,0,5409,.IMAD.MOV.U32,5398,5400,4,2,1,0,0,0,6,0,3,0,-1,2,7,0,0,-1,0x290,-1,-1,-1,0 
1,1,43,0,0,5414,.IADD3,5400,5405,4,2,1,0,0,0,6,0,3,0,-1,2,16,0,0,-1,0x2a0,-1,-1,-1,0 
1,1,44,0,0,5415,.I2F,5400,5406,4,1,1,0,0,0,1,0,3,0,-1,2,0,0,0,-1,0x2b0,-1,-1,-1,0 
1,1,45,0,0,5416,.I2F,5406,5407,4,1,1,0,0,0,1,0,3,0,-1,2,15,0,0,-1,0x2c0,-1,-1,-1,0 
1,1,46,0,0,5418,.IMAD,5406,5409,4,2,1,0,0,0,6,0,3,0,-1,2,7,0,0,-1,0x2d0,-1,-1,-1,0 
1,1,47,0,0,5419,.IADD3,5409,5410,4,2,1,0,0,0,6,0,3,0,-1,2,16,0,0,-1,0x2e0,-1,-1,-1,0 
1,1,48,0,0,5421,.IMAD.MOV.U32,5409,5411,4,3,1,0,0,0,6,0,3,0,-1,2,16,0,0,-1,0x2f0,-1,-1,-1,0 
1,1,49,0,0,5423,.I2F,5411,5414,4,1,1,0,0,0,1,0,3,0,-1,2,16,0,0,-1,0x300,-1,-1,-1,0 
1,1,50,0,0,5424,.PRMT,5411,5415,4,2,1,0,0,0,1,0,3,0,-1,2,16,0,0,-1,0x310,-1,-1,-1,0 
1,1,51,0,0,5428,.I2F,5415,5419,4,1,1,0,0,0,1,0,3,0,-1,2,16,0,0,-1,0x320,-1,-1,-1,0 
1,1,52,0,0,5430,.I2F,5415,5421,4,1,1,0,0,0,1,0,3,0,-1,2,7,0,0,-1,0x330,-1,-1,-1,0 
1,1,53,0,0,5431,.FADD,5421,5422,4,2,1,0,0,0,5,0,1,0,-1,2,15,0,0,-1,0x340,-1,-1,-1,0 
1,1,54,0,0,5433,.ISETP.NE.AND,5421,5424,4,1,0,0,0,0,6,0,3,0,-1,2,16,0,0,-1,0x350,-1,-1,-1,0 
1,1,55,0,0,5434,.IMAD.MOV.U32,5424,5425,4,2,1,0,0,0,6,0,3,0,-1,2,16,0,0,-1,0x360,-1,-1,-1,0 
1,1,56,0,0,5434,.MOV,5424,5426,4,0,1,0,0,0,1,0,3,0,-1,2,16,0,0,-1,0x370,-1,-1,-1,0 
1,1,57,0,0,5440,.FADD,5426,5431,4,2,1,0,0,0,5,0,1,0,-1,2,16,0,0,-1,0x380,-1,-1,-1,0 
1,1,58,0,0,5440,.CALL.REL.NOINC,5426,5432,4,0,0,0,0,0,100,0,7,0,-1,4,16,0,0,-1,0x390,-1,-1,-1,0 
1,1,59,0,0,5443,.SHFL.IDX,5432,5433,4,4,0,0,0,0,1,0,3,0,-1,2,0,0,0,-1,0x820,-1,-1,-1,0 
1,1,61,0,0,5443,.BRA,5434,5435,4,0,0,0,0,0,100,0,7,0,-1,4,0,0,0,-1,0x840,-1,-1,-1,0 
1,1,60,0,0,5444,.FCHK,5432,5434,4,2,0,0,0,0,5,0,1,0,-1,2,16,0,0,-1,0x830,-1,-1,-1,0 
1,1,62,0,0,5445,.IMAD.MOV.U32,5434,5436,4,2,1,0,0,0,6,0,3,0,-1,2,16,0,0,-1,0x850,-1,-1,-1,0 
1,1,63,0,0,5454,.FADD.FTZ,5436,5445,4,2,1,0,0,0,5,0,1,0,-1,2,16,0,0,-1,0x860,-1,-1,-1,0 
1,1,65,0,0,5456,.IMAD.MOV.U32,5446,5447,4,2,1,0,0,0,6,0,3,0,-1,2,16,0,0,-1,0x880,-1,-1,-1,0 
1,1,64,0,0,5471,.MUFU.RCP,5436,5446,20,1,1,0,0,0,2,0,4,0,-1,8,16,0,0,-1,0x870,-1,-1,-1,0 
1,1,66,0,0,5480,.FFMA,5446,5471,4,2,1,0,0,0,5,0,1,0,-1,2,16,0,0,-1,0x890,-1,-1,-1,0 
1,1,67,0,0,5489,.FFMA,5471,5480,4,3,1,0,0,0,5,0,1,0,-1,2,16,0,0,-1,0x8a0,-1,-1,-1,0 
1,1,68,0,0,5498,.FFMA,5471,5489,4,3,1,0,0,0,5,0,1,0,-1,2,16,0,0,-1,0x8b0,-1,-1,-1,0 
1,1,69,0,0,5507,.FFMA,5489,5498,4,3,1,0,0,0,5,0,1,0,-1,2,16,0,0,-1,0x8c0,-1,-1,-1,0 
1,1,70,0,0,5516,.FFMA,5489,5507,4,3,1,0,0,0,5,0,1,0,-1,2,16,0,0,-1,0x8d0,-1,-1,-1,0 
1,1,71,0,0,5525,.FFMA,5507,5516,4,3,1,0,0,0,5,0,1,0,-1,2,16,0,0,-1,0x8e0,-1,-1,-1,0 
1,1,72,0,0,5534,.FFMA,5507,5525,4,3,1,0,0,0,5,0,1,0,-1,2,16,0,0,-1,0x8f0,-1,-1,-1,0 
1,1,73,0,0,5534,.RET.REL.NODEC,5525,5526,4,0,1,0,0,0,100,0,7,0,-1,4,16,0,0,-1,0x900,-1,-1,-1,0 
1,1,74,0,0,5535,.BSYNC,5525,5527,4,0,0,0,0,0,100,0,7,0,-1,4,16,0,0,-1,0x3a0,-1,-1,-1,0 
1,1,75,0,0,5543,.PRMT,5527,5534,4,2,1,0,0,0,1,0,3,0,-1,2,16,0,0,-1,0x3b0,-1,-1,-1,0 
1,1,76,0,0,5544,.IMAD.MOV.U32,5527,5535,4,2,1,0,0,0,6,0,3,0,-1,2,15,0,0,-1,0x3c0,-1,-1,-1,0 
1,1,77,0,0,5545,.PRMT,5535,5536,4,2,1,0,0,0,1,0,3,0,-1,2,15,0,0,-1,0x3d0,-1,-1,-1,0 
1,1,78,0,0,5545,.BMOV.32.CLEAR,5535,5537,4,0,1,0,0,0,100,0,7,0,-1,4,16,0,0,-1,0x3e0,-1,-1,-1,0 
1,1,79,0,0,5552,.ISETP.NE.AND,5537,5543,4,1,0,0,0,0,6,0,3,0,-1,2,16,0,0,-1,0x3f0,-1,-1,-1,0 
1,1,80,0,0,5552,.BSSY,5537,5544,4,0,0,0,0,0,100,0,7,0,-1,4,16,0,0,-1,0x400,-1,-1,-1,0 
1,1,81,0,0,5554,.PRMT,5544,5545,4,2,1,0,0,0,1,0,3,0,-1,2,16,0,0,-1,0x410,-1,-1,-1,0 
1,1,82,0,0,5555,.IMAD,5544,5546,4,2,1,0,0,0,6,0,3,0,-1,2,15,0,0,-1,0x420,-1,-1,-1,0 
1,1,83,0,0,5556,.FADD,5546,5547,4,2,1,0,0,0,5,0,1,0,-1,2,16,0,0,-1,0x430,-1,-1,-1,0 
1,1,84,0,0,5563,.IADD3,5546,5554,4,2,1,0,0,0,6,0,3,0,-1,2,16,0,0,-1,0x440,-1,-1,-1,0 
1,1,85,0,0,5563,.MOV,5554,5555,4,0,1,0,0,0,1,0,3,0,-1,2,16,0,0,-1,0x450,-1,-1,-1,0 
1,1,86,0,0,5565,.PRMT,5554,5556,4,2,1,0,0,0,1,0,3,0,-1,2,16,0,0,-1,0x460,-1,-1,-1,0 
1,1,87,0,0,5572,.I2F,5556,5563,4,1,1,0,0,0,1,0,3,0,-1,2,16,0,0,-1,0x470,-1,-1,-1,0 
1,1,88,0,0,5574,.IADD3,5556,5565,4,2,1,0,0,0,6,0,3,0,-1,2,16,0,0,-1,0x480,-1,-1,-1,0 
1,1,89,0,0,5575,.I2F,5565,5566,4,1,1,0,0,0,1,0,3,0,-1,2,15,0,0,-1,0x490,-1,-1,-1,0 
1,1,90,0,0,5583,.I2F,5565,5574,4,1,1,0,0,0,1,0,3,0,-1,2,16,0,0,-1,0x4a0,-1,-1,-1,0 
1,1,91,0,0,5584,.FADD,5574,5575,4,2,1,0,0,0,5,0,1,0,-1,2,15,0,0,-1,0x4b0,-1,-1,-1,0 
1,1,92,0,0,5593,.FADD,5574,5584,4,2,1,0,0,0,5,0,1,0,-1,2,16,0,0,-1,0x4c0,-1,-1,-1,0 
1,1,93,0,0,5593,.CALL.REL.NOINC,5584,5585,4,0,0,0,0,0,100,0,7,0,-1,4,16,0,0,-1,0x4d0,-1,-1,-1,0 
1,1,94,0,0,5596,.SHFL.IDX,5584,5586,4,4,0,0,0,0,1,0,3,0,-1,2,0,0,0,-1,0x820,-1,-1,-1,0 
1,1,96,0,0,5596,.BRA,5586,5588,4,0,0,0,0,0,100,0,7,0,-1,4,0,0,0,-1,0x840,-1,-1,-1,0 
1,1,95,0,0,5597,.FCHK,5586,5587,4,2,0,0,0,0,5,0,1,0,-1,2,16,0,0,-1,0x830,-1,-1,-1,0 
1,1,97,0,0,5598,.IMAD.MOV.U32,5588,5589,4,2,1,0,0,0,6,0,3,0,-1,2,16,0,0,-1,0x850,-1,-1,-1,0 
1,1,98,0,0,5607,.FADD.FTZ,5588,5598,4,2,1,0,0,0,5,0,1,0,-1,2,16,0,0,-1,0x860,-1,-1,-1,0 
1,1,100,0,0,5609,.IMAD.MOV.U32,5598,5600,4,2,1,0,0,0,6,0,3,0,-1,2,16,0,0,-1,0x880,-1,-1,-1,0 
1,1,99,0,0,5624,.MUFU.RCP,5598,5599,20,1,1,0,0,0,2,0,4,0,-1,8,16,0,0,-1,0x870,-1,-1,-1,0 
1,1,101,0,0,5633,.FFMA,5600,5624,4,2,1,0,0,0,5,0,1,0,-1,2,16,0,0,-1,0x890,-1,-1,-1,0 
1,1,102,0,0,5642,.FFMA,5600,5633,4,3,1,0,0,0,5,0,1,0,-1,2,16,0,0,-1,0x8a0,-1,-1,-1,0 
1,1,103,0,0,5651,.FFMA,5633,5642,4,3,1,0,0,0,5,0,1,0,-1,2,16,0,0,-1,0x8b0,-1,-1,-1,0 
1,1,104,0,0,5660,.FFMA,5633,5651,4,3,1,0,0,0,5,0,1,0,-1,2,16,0,0,-1,0x8c0,-1,-1,-1,0 
1,1,105,0,0,5669,.FFMA,5651,5660,4,3,1,0,0,0,5,0,1,0,-1,2,16,0,0,-1,0x8d0,-1,-1,-1,0 
1,1,106,0,0,5678,.FFMA,5651,5669,4,3,1,0,0,0,5,0,1,0,-1,2,16,0,0,-1,0x8e0,-1,-1,-1,0 
1,1,107,0,0,5687,.FFMA,5669,5678,4,3,1,0,0,0,5,0,1,0,-1,2,16,0,0,-1,0x8f0,-1,-1,-1,0 
1,1,108,0,0,5687,.RET.REL.NODEC,5669,5679,4,0,1,0,0,0,100,0,7,0,-1,4,16,0,0,-1,0x900,-1,-1,-1,0 
1,1,109,0,0,5688,.BSYNC,5679,5680,4,0,0,0,0,0,100,0,7,0,-1,4,16,0,0,-1,0x4e0,-1,-1,-1,0 
1,1,110,0,0,5696,.FADD,5679,5687,4,2,1,0,0,0,5,0,1,0,-1,2,16,0,0,-1,0x4f0,-1,-1,-1,0 
1,1,111,0,0,5696,.BMOV.32.CLEAR,5687,5688,4,0,1,0,0,0,100,0,7,0,-1,4,16,0,0,-1,0x500,-1,-1,-1,0 
1,1,112,0,0,5698,.FADD,5687,5689,4,1,1,0,0,0,5,0,1,0,-1,2,16,0,0,-1,0x510,-1,-1,-1,0 
1,1,113,0,0,5698,.BSSY,5689,5690,4,0,0,0,0,0,100,0,7,0,-1,4,16,0,0,-1,0x520,-1,-1,-1,0 
1,1,114,0,0,5705,.FADD,5689,5696,4,1,1,0,0,0,5,0,1,0,-1,2,16,0,0,-1,0x530,-1,-1,-1,0 
1,1,115,0,0,5714,.FMUL,5696,5705,4,2,1,0,0,0,5,0,1,0,-1,2,16,0,0,-1,0x540,-1,-1,-1,0 
1,1,116,0,0,5723,.FFMA,5696,5714,4,3,1,0,0,0,5,0,1,0,-1,2,16,0,0,-1,0x550,-1,-1,-1,0 
1,1,117,0,0,5732,.IADD3,5714,5723,4,2,1,0,0,0,6,0,3,0,-1,2,16,0,0,-1,0x560,-1,-1,-1,0 
1,1,118,0,0,5741,.ISETP.GT.U32.AND,5714,5732,4,1,0,0,0,0,6,0,3,0,-1,2,16,0,0,-1,0x570,-1,-1,-1,0 
1,1,119,0,0,5741,.BRA,5732,5733,4,0,0,0,0,0,100,0,7,0,-1,4,16,0,0,-1,0x580,-1,-1,-1,0 
1,1,120,0,0,5759,.MUFU.RSQ,5732,5734,20,1,1,0,0,0,2,0,4,0,-1,8,16,0,0,-1,0x5f0,-1,-1,-1,0 
1,1,121,0,0,5768,.FMUL.FTZ,5734,5759,4,2,1,0,0,0,5,0,1,0,-1,2,16,0,0,-1,0x600,-1,-1,-1,0 
1,1,122,0,0,5769,.FMUL.FTZ,5734,5760,4,1,1,0,0,0,5,0,1,0,-1,2,16,0,0,-1,0x610,-1,-1,-1,0 
1,1,123,0,0,5777,.FADD.FTZ,5760,5768,4,2,1,0,0,0,5,0,1,0,-1,2,16,0,0,-1,0x620,-1,-1,-1,0 
1,1,124,0,0,5786,.FFMA,5760,5777,4,3,1,0,0,0,5,0,1,0,-1,2,16,0,0,-1,0x630,-1,-1,-1,0 
1,1,125,0,0,5795,.FFMA,5777,5786,4,3,1,0,0,0,5,0,1,0,-1,2,16,0,0,-1,0x640,-1,-1,-1,0 
1,1,126,0,0,5795,.BSYNC,5777,5787,4,0,0,0,0,0,100,0,7,0,-1,4,16,0,0,-1,0x650,-1,-1,-1,0 
1,1,127,0,0,5797,.IMAD.MOV.U32,5787,5788,4,2,1,0,0,0,6,0,3,0,-1,2,16,0,0,-1,0x660,-1,-1,-1,0 
1,1,128,0,0,5806,.IMAD.WIDE,5787,5797,4,2,1,0,0,0,6,0,3,0,-1,2,16,0,0,-1,0x670,-1,-1,-1,0 
1,1,129,0,0,5810,.STG.E.SYS,5797,5806,1,2,0,0,1,4,11,0,6,0,-1,1,16,0,0,-1,0x680,-1,-1,-1,1 
1,1,130,0,0,5812,.EXIT,5797,5807,1,0,0,0,0,0,17,0,3,0,-1,1,16,0,0,-1,0x690,-1,-1,-1,0 
Destroy streams for kernel 1: size 0


gpgpu_simulation_time = 0 days, 0 hrs, 0 min, 1 sec (1 sec)
gpgpu_simulation_rate = 1865 (inst/sec)
gpgpu_simulation_rate = 5998 (cycle/sec)
gpgpu_silicon_slowdown = 188729x
launching memcpy command : MemcpyHtoD,0x00007fb125700000,735000
-kernel name = _Z6euclidPcffPfiii
-kernel id = 2
-grid dim = (938,1,1)
-block dim = (16,1,1)
-shmem = 0
-nregs = 21
-binary version = 70
-cuda stream id = 0
-shmem base_addr = 0x00007fb15c000000
-local mem base_addr = 0x00007fb15e000000
-nvbit version = 1.4
-accelsim tracer version = 3
launching kernel command : /scratch/santosh/gpu_simulation/accel-sim-framework/traces/rodinia_2.0-ft/11.0/nn-rodinia-2.0-ft/__data_filelist_4_3_30_90___data_filelist_4_3_30_90_result_txt/traces/kernel-2.traceg
GPGPU-Sim uArch: Shader 0 bind to kernel 2 '_Z6euclidPcffPfiii'
GPGPU-Sim: Reconfigure L1 cache to 128KB
GPGPUsim: cta_size: 16
ctaid: 0, start warp: 0, end_warp: 1, start_thread: 0, end_thread: 16
thread block = 0,0,0
warp id: 0
warp_id: 0, insts: 222
1,2,131,0,0,11009,.IMAD.MOV.U32,10999,11000,4,2,1,0,0,0,6,0,3,0,-1,2,16,0,0,-1,0,-1,-1,-1,0 
1,2,133,0,0,11010,.S2R,11001,11002,4,0,1,0,0,0,1,0,3,0,-1,2,16,0,0,-1,0x20,-1,-1,-1,0 
1,2,132,0,0,11011,.SHFL.IDX,10999,11001,4,4,0,0,0,0,1,0,3,0,-1,2,0,0,0,-1,0x10,-1,-1,-1,0 
1,2,134,0,0,11011,.S2R,11001,11003,4,0,1,0,0,0,1,0,3,0,-1,2,16,0,0,-1,0x30,-1,-1,-1,0 
1,2,135,0,0,11020,.IMAD,11003,11011,4,2,1,0,0,0,6,0,3,0,-1,2,16,0,0,-1,0x40,-1,-1,-1,0 
1,2,137,0,0,11026,.EXIT,11020,11021,1,0,0,0,0,0,17,0,3,0,-1,1,0,0,0,-1,0x60,-1,-1,-1,0 
1,2,136,0,0,11029,.ISETP.GE.AND,11003,11020,4,1,0,0,0,0,6,0,3,0,-1,2,16,0,0,-1,0x50,-1,-1,-1,0 
1,2,138,0,0,11031,.IMAD.MOV.U32,11020,11022,4,2,1,0,0,0,6,0,3,0,-1,2,16,0,0,-1,0x70,-1,-1,-1,0 
1,2,139,0,0,11040,.IMAD,11022,11031,4,2,1,0,0,0,6,0,3,0,-1,2,16,0,0,-1,0x80,-1,-1,-1,0 
1,2,140,0,0,11049,.IADD3,11022,11040,4,2,1,0,0,0,6,0,3,0,-1,2,16,0,0,-1,0x90,-1,-1,-1,0 
1,2,141,0,0,11050,.LEA.HI.X.SX32,11040,11041,4,1,1,0,0,0,6,0,3,0,-1,2,16,0,0,-1,0xa0,-1,-1,-1,0 
1,2,150,0,0,11065,.BMOV.32.CLEAR,11055,11057,4,0,1,0,0,0,100,0,7,0,-1,4,16,0,0,-1,0x130,-1,-1,-1,0 
1,2,151,0,0,11066,.BSSY,11057,11058,4,0,0,0,0,0,100,0,7,0,-1,4,16,0,0,-1,0x140,-1,-1,-1,0 
1,2,142,0,0,11342,.LDG.E.U8.SYS,11040,11049,1,1,1,1,0,1,8,0,6,0,-1,1,16,0,0,-1,0xb0,-1,-1,-1,1 
1,2,143,0,0,11346,.LDG.E.U8.SYS,11049,11050,1,1,1,1,0,1,8,0,6,0,-1,1,16,0,0,-1,0xc0,-1,-1,-1,1 
1,2,144,0,0,11347,.LDG.E.U8.SYS,11049,11051,1,1,1,1,0,1,8,0,6,0,-1,1,16,0,0,-1,0xd0,-1,-1,-1,1 
1,2,152,0,0,11351,.PRMT,11057,11342,4,2,1,0,0,0,1,0,3,0,-1,2,16,0,0,-1,0x150,-1,-1,-1,0 
1,2,153,0,0,11356,.PRMT,11342,11346,4,2,1,0,0,0,1,0,3,0,-1,2,16,0,0,-1,0x160,-1,-1,-1,0 
1,2,146,0,0,11358,.LDG.E.U8.SYS,11051,11053,1,1,1,1,0,1,8,0,6,0,-1,1,16,0,0,-1,0xf0,-1,-1,-1,1 
1,2,154,0,0,11360,.ISETP.NE.AND,11342,11351,4,1,0,0,0,0,6,0,3,0,-1,2,16,0,0,-1,0x170,-1,-1,-1,0 
1,2,155,0,0,11361,.PRMT,11351,11352,4,2,1,0,0,0,1,0,3,0,-1,2,16,0,0,-1,0x180,-1,-1,-1,0 
1,2,145,0,0,11363,.LDG.E.U8.SYS,11051,11052,1,1,1,1,0,1,8,0,6,0,-1,1,16,0,0,-1,0xe0,-1,-1,-1,1 
1,2,147,0,0,11364,.LDG.E.U8.SYS,11053,11054,1,1,1,1,0,1,8,0,6,0,-1,1,16,0,0,-1,0x100,-1,-1,-1,1 
1,2,156,0,0,11365,.ISETP.NE.AND,11351,11356,4,1,0,0,0,0,6,0,3,0,-1,2,16,0,0,-1,0x190,-1,-1,-1,0 
1,2,148,0,0,11367,.LDG.E.U8.SYS,11053,11055,1,1,1,1,0,1,8,0,6,0,-1,1,16,0,0,-1,0x110,-1,-1,-1,1 
1,2,149,0,0,11369,.LDG.E.U8.SYS,11055,11056,1,1,1,1,0,1,8,0,6,0,-1,1,16,0,0,-1,0x120,-1,-1,-1,1 
1,2,157,0,0,11373,.PRMT,11356,11363,4,2,1,0,0,0,1,0,3,0,-1,2,16,0,0,-1,0x1a0,-1,-1,-1,0 
1,2,158,0,0,11373,.ISETP.NE.AND,11356,11364,4,1,0,0,0,0,6,0,3,0,-1,2,16,0,0,-1,0x1b0,-1,-1,-1,0 
1,2,159,0,0,11382,.ISETP.NE.AND,11364,11373,4,1,0,0,0,0,6,0,3,0,-1,2,16,0,0,-1,0x1c0,-1,-1,-1,0 
1,2,160,0,0,11383,.PRMT,11364,11374,4,2,1,0,0,0,1,0,3,0,-1,2,0,0,0,-1,0x1d0,-1,-1,-1,0 
1,2,161,0,0,11384,.IMAD.MOV.U32,11374,11375,4,2,1,0,0,0,6,0,3,0,-1,2,0,0,0,-1,0x1e0,-1,-1,-1,0 
1,2,162,0,0,11385,.PRMT,11374,11376,4,2,1,0,0,0,1,0,3,0,-1,2,14,0,0,-1,0x1f0,-1,-1,-1,0 
1,2,163,0,0,11386,.IMAD.MOV.U32,11376,11377,4,2,1,0,0,0,6,0,3,0,-1,2,14,0,0,-1,0x200,-1,-1,-1,0 
1,2,164,0,0,11393,.IMAD,11376,11384,4,2,1,0,0,0,6,0,3,0,-1,2,0,0,0,-1,0x210,-1,-1,-1,0 
1,2,165,0,0,11394,.PRMT,11384,11385,4,2,1,0,0,0,1,0,3,0,-1,2,16,0,0,-1,0x220,-1,-1,-1,0 
1,2,166,0,0,11395,.IMAD,11384,11386,4,2,1,0,0,0,6,0,3,0,-1,2,14,0,0,-1,0x230,-1,-1,-1,0 
1,2,167,0,0,11396,.PRMT,11386,11387,4,2,1,0,0,0,1,0,3,0,-1,2,15,0,0,-1,0x240,-1,-1,-1,0 
1,2,168,0,0,11398,.IMAD.MOV.U32,11386,11388,4,3,1,0,0,0,6,0,3,0,-1,2,16,0,0,-1,0x250,-1,-1,-1,0 
1,2,169,0,0,11403,.IMAD.MOV.U32,11388,11394,4,3,1,0,0,0,6,0,3,0,-1,2,16,0,0,-1,0x260,-1,-1,-1,0 
1,2,170,0,0,11405,.IMAD.MOV.U32,11388,11396,4,3,1,0,0,0,6,0,3,0,-1,2,15,0,0,-1,0x270,-1,-1,-1,0 
1,2,171,0,0,11406,.PRMT,11396,11397,4,2,1,0,0,0,1,0,3,0,-1,2,16,0,0,-1,0x280,-1,-1,-1,0 
1,2,172,0,0,11407,.IMAD.MOV.U32,11396,11398,4,2,1,0,0,0,6,0,3,0,-1,2,15,0,0,-1,0x290,-1,-1,-1,0 
1,2,173,0,0,11412,.IADD3,11398,11403,4,2,1,0,0,0,6,0,3,0,-1,2,16,0,0,-1,0x2a0,-1,-1,-1,0 
1,2,174,0,0,11413,.I2F,11398,11404,4,1,1,0,0,0,1,0,3,0,-1,2,0,0,0,-1,0x2b0,-1,-1,-1,0 
1,2,175,0,0,11414,.I2F,11404,11405,4,1,1,0,0,0,1,0,3,0,-1,2,14,0,0,-1,0x2c0,-1,-1,-1,0 
1,2,176,0,0,11416,.IMAD,11404,11407,4,2,1,0,0,0,6,0,3,0,-1,2,15,0,0,-1,0x2d0,-1,-1,-1,0 
1,2,177,0,0,11417,.IADD3,11407,11408,4,2,1,0,0,0,6,0,3,0,-1,2,16,0,0,-1,0x2e0,-1,-1,-1,0 
1,2,178,0,0,11419,.IMAD.MOV.U32,11407,11409,4,3,1,0,0,0,6,0,3,0,-1,2,16,0,0,-1,0x2f0,-1,-1,-1,0 
1,2,179,0,0,11421,.I2F,11409,11412,4,1,1,0,0,0,1,0,3,0,-1,2,16,0,0,-1,0x300,-1,-1,-1,0 
1,2,180,0,0,11422,.PRMT,11409,11413,4,2,1,0,0,0,1,0,3,0,-1,2,16,0,0,-1,0x310,-1,-1,-1,0 
1,2,181,0,0,11426,.I2F,11413,11417,4,1,1,0,0,0,1,0,3,0,-1,2,16,0,0,-1,0x320,-1,-1,-1,0 
1,2,182,0,0,11428,.I2F,11413,11419,4,1,1,0,0,0,1,0,3,0,-1,2,15,0,0,-1,0x330,-1,-1,-1,0 
1,2,183,0,0,11429,.FADD,11419,11420,4,2,1,0,0,0,5,0,1,0,-1,2,14,0,0,-1,0x340,-1,-1,-1,0 
1,2,184,0,0,11431,.ISETP.NE.AND,11419,11422,4,1,0,0,0,0,6,0,3,0,-1,2,16,0,0,-1,0x350,-1,-1,-1,0 
1,2,185,0,0,11432,.IMAD.MOV.U32,11422,11423,4,2,1,0,0,0,6,0,3,0,-1,2,16,0,0,-1,0x360,-1,-1,-1,0 
1,2,186,0,0,11432,.MOV,11422,11424,4,0,1,0,0,0,1,0,3,0,-1,2,16,0,0,-1,0x370,-1,-1,-1,0 
1,2,187,0,0,11438,.FADD,11424,11429,4,2,1,0,0,0,5,0,1,0,-1,2,16,0,0,-1,0x380,-1,-1,-1,0 
1,2,188,0,0,11438,.CALL.REL.NOINC,11424,11430,4,0,0,0,0,0,100,0,7,0,-1,4,16,0,0,-1,0x390,-1,-1,-1,0 
1,2,189,0,0,11441,.SHFL.IDX,11430,11431,4,4,0,0,0,0,1,0,3,0,-1,2,0,0,0,-1,0x820,-1,-1,-1,0 
1,2,191,0,0,11441,.BRA,11432,11433,4,0,0,0,0,0,100,0,7,0,-1,4,5,0,0,-1,0x840,-1,-1,-1,0 
1,2,190,0,0,11442,.FCHK,11430,11432,4,2,0,0,0,0,5,0,1,0,-1,2,16,0,0,-1,0x830,-1,-1,-1,0 
1,2,192,0,0,11442,.BMOV.32.CLEAR,11432,11434,4,0,1,0,0,0,100,0,7,0,-1,4,5,0,0,-1,0x910,-1,-1,-1,0 
1,2,193,0,0,11443,.BSSY,11434,11435,4,0,0,0,0,0,100,0,7,0,-1,4,5,0,0,-1,0x920,-1,-1,-1,0 
1,2,194,0,0,11451,.IMAD.MOV.U32,11434,11442,4,3,1,0,0,0,6,0,3,0,-1,2,5,0,0,-1,0x930,-1,-1,-1,0 
1,2,195,0,0,11451,.MOV,11442,11443,4,0,1,0,0,0,1,0,3,0,-1,2,5,0,0,-1,0x940,-1,-1,-1,0 
1,2,196,0,0,11453,.IMAD.MOV.U32,11442,11444,4,2,1,0,0,0,6,0,3,0,-1,2,5,0,0,-1,0x950,-1,-1,-1,0 
1,2,197,0,0,11453,.CALL.REL.NOINC,11444,11445,4,0,0,0,0,0,100,0,7,0,-1,4,5,0,0,-1,0x960,-1,-1,-1,0 
1,2,198,0,0,11456,.SHFL.IDX,11444,11446,4,4,0,0,0,0,1,0,3,0,-1,2,0,0,0,-1,0x9b0,-1,-1,-1,0 
1,2,199,0,0,11462,.SHF.R.U32.HI,11446,11453,4,2,1,0,0,0,6,0,3,0,-1,2,5,0,0,-1,0x9c0,-1,-1,-1,0 
1,2,200,0,0,11462,.BMOV.32.CLEAR,11446,11454,4,0,1,0,0,0,100,0,7,0,-1,4,5,0,0,-1,0x9d0,-1,-1,-1,0 
1,2,201,0,0,11471,.SHF.R.U32.HI,11454,11462,4,2,1,0,0,0,6,0,3,0,-1,2,5,0,0,-1,0x9e0,-1,-1,-1,0 
1,2,202,0,0,11471,.BSSY,11454,11463,4,0,0,0,0,0,100,0,7,0,-1,4,5,0,0,-1,0x9f0,-1,-1,-1,0 
1,2,203,0,0,11473,.LOP3.LUT,11463,11464,4,2,1,0,0,0,6,0,3,0,-1,2,5,0,0,-1,0xa00,-1,-1,-1,0 
1,2,204,0,0,11474,.IMAD.MOV.U32,11463,11465,4,2,1,0,0,0,6,0,3,0,-1,2,5,0,0,-1,0xa10,-1,-1,-1,0 
1,2,205,0,0,11480,.LOP3.LUT,11465,11471,4,2,1,0,0,0,6,0,3,0,-1,2,5,0,0,-1,0xa20,-1,-1,-1,0 
1,2,206,0,0,11482,.IADD3,11465,11473,4,2,1,0,0,0,6,0,3,0,-1,2,5,0,0,-1,0xa30,-1,-1,-1,0 
1,2,207,0,0,11489,.IADD3,11473,11480,4,2,1,0,0,0,6,0,3,0,-1,2,5,0,0,-1,0xa40,-1,-1,-1,0 
1,2,208,0,0,11491,.ISETP.GT.U32.AND,11473,11482,4,1,0,0,0,0,6,0,3,0,-1,2,5,0,0,-1,0xa50,-1,-1,-1,0 
1,2,209,0,0,11498,.ISETP.GT.U32.OR,11482,11489,4,1,0,0,0,0,6,0,3,0,-1,2,5,0,0,-1,0xa60,-1,-1,-1,0 
1,2,211,0,0,11499,.BRA,11490,11491,4,0,0,0,0,0,100,0,7,0,-1,4,0,0,0,-1,0xa80,-1,-1,-1,0 
1,2,210,0,0,11500,.IMAD.MOV.U32,11482,11490,4,3,1,0,0,0,6,0,3,0,-1,2,0,0,0,-1,0xa70,-1,-1,-1,0 
1,2,212,0,0,11501,.IMAD.MOV.U32,11490,11492,4,2,1,0,0,0,6,0,3,0,-1,2,5,0,0,-1,0xa90,-1,-1,-1,0 
1,2,213,0,0,11502,.FSETP.GTU.FTZ.AND,11492,11493,4,1,0,0,0,0,5,0,1,0,-1,2,5,0,0,-1,0xaa0,-1,-1,-1,0 
1,2,214,0,0,11510,.FSETP.GTU.FTZ.AND,11492,11501,4,1,0,0,0,0,5,0,1,0,-1,2,5,0,0,-1,0xab0,-1,-1,-1,0 
1,2,215,0,0,11510,.PLOP3.LUT,11501,11502,4,0,0,0,0,0,1,0,3,0,-1,2,5,0,0,-1,0xac0,-1,-1,-1,0 
1,2,216,0,0,11511,.BREAK,11501,11503,4,0,0,0,0,0,100,0,7,0,-1,4,0,0,0,-1,0xad0,-1,-1,-1,0 
1,2,217,0,0,11512,.BRA,11503,11504,4,0,0,0,0,0,100,0,7,0,-1,4,0,0,0,-1,0xae0,-1,-1,-1,0 
1,2,218,0,0,11514,.LOP3.LUT,11503,11505,4,3,0,0,0,0,6,0,3,0,-1,2,5,0,0,-1,0xaf0,-1,-1,-1,0 
1,2,219,0,0,11514,.BREAK,11505,11506,4,0,0,0,0,0,100,0,7,0,-1,4,0,0,0,-1,0xb00,-1,-1,-1,0 
1,2,220,0,0,11515,.BRA,11505,11507,4,0,0,0,0,0,100,0,7,0,-1,4,0,0,0,-1,0xb10,-1,-1,-1,0 
1,2,221,0,0,11517,.FSETP.NEU.FTZ.AND,11507,11508,4,1,0,0,0,0,5,0,1,0,-1,2,5,0,0,-1,0xb20,-1,-1,-1,0 
1,2,222,0,0,11518,.FSETP.NEU.FTZ.AND,11507,11509,4,1,0,0,0,0,5,0,1,0,-1,2,5,0,0,-1,0xb30,-1,-1,-1,0 
1,2,223,0,0,11519,.FSETP.NEU.FTZ.AND,11509,11510,4,1,0,0,0,0,5,0,1,0,-1,2,5,0,0,-1,0xb40,-1,-1,-1,0 
1,2,224,0,0,11519,.BREAK,11509,11511,4,0,0,0,0,0,100,0,7,0,-1,4,0,0,0,-1,0xb50,-1,-1,-1,0 
1,2,225,0,0,11520,.BRA,11511,11512,4,0,0,0,0,0,100,0,7,0,-1,4,0,0,0,-1,0xb60,-1,-1,-1,0 
1,2,226,0,0,11522,.LOP3.LUT,11511,11513,4,3,0,0,0,0,6,0,3,0,-1,2,5,0,0,-1,0xb70,-1,-1,-1,0 
1,2,227,0,0,11522,.PLOP3.LUT,11513,11514,4,0,0,0,0,0,1,0,3,0,-1,2,5,0,0,-1,0xb80,-1,-1,-1,0 
1,2,228,0,0,11523,.BREAK,11513,11515,4,0,0,0,0,0,100,0,7,0,-1,4,5,0,0,-1,0xb90,-1,-1,-1,0 
1,2,229,0,0,11524,.BRA,11515,11516,4,0,0,0,0,0,100,0,7,0,-1,4,5,0,0,-1,0xba0,-1,-1,-1,0 
1,2,230,0,0,11526,.IMAD.MOV.U32,11515,11517,4,2,1,0,0,0,6,0,3,0,-1,2,5,0,0,-1,0x10c0,-1,-1,-1,0 
1,2,231,0,0,11527,.LOP3.LUT,11517,11518,4,2,1,0,0,0,6,0,3,0,-1,2,5,0,0,-1,0x10d0,-1,-1,-1,0 
1,2,232,0,0,11527,.RET.REL.NODEC,11517,11519,4,0,1,0,0,0,100,0,7,0,-1,4,5,0,0,-1,0x10e0,-1,-1,-1,0 
1,2,233,0,0,11528,.BSYNC,11519,11520,4,0,0,0,0,0,100,0,7,0,-1,4,5,0,0,-1,0x970,-1,-1,-1,0 
1,2,234,0,0,11536,.IMAD.MOV.U32,11519,11527,4,3,1,0,0,0,6,0,3,0,-1,2,5,0,0,-1,0x980,-1,-1,-1,0 
1,2,235,0,0,11536,.MOV,11527,11528,4,0,1,0,0,0,1,0,3,0,-1,2,5,0,0,-1,0x990,-1,-1,-1,0 
1,2,236,0,0,11537,.RET.REL.NODEC,11527,11529,4,0,1,0,0,0,100,0,7,0,-1,4,5,0,0,-1,0x9a0,-1,-1,-1,0 
1,2,237,0,0,11538,.BSYNC,11529,11530,4,0,0,0,0,0,100,0,7,0,-1,4,5,0,0,-1,0x3a0,-1,-1,-1,0 
1,2,238,0,0,11545,.IMAD.MOV.U32,11529,11536,4,2,1,0,0,0,6,0,3,0,-1,2,11,0,0,-1,0x850,-1,-1,-1,0 
1,2,239,0,0,11554,.FADD.FTZ,11536,11545,4,2,1,0,0,0,5,0,1,0,-1,2,11,0,0,-1,0x860,-1,-1,-1,0 
1,2,241,0,0,11556,.IMAD.MOV.U32,11546,11547,4,2,1,0,0,0,6,0,3,0,-1,2,11,0,0,-1,0x880,-1,-1,-1,0 
1,2,240,0,0,11571,.MUFU.RCP,11536,11546,20,1,1,0,0,0,2,0,4,0,-1,8,11,0,0,-1,0x870,-1,-1,-1,0 
1,2,242,0,0,11580,.FFMA,11546,11571,4,2,1,0,0,0,5,0,1,0,-1,2,11,0,0,-1,0x890,-1,-1,-1,0 
1,2,243,0,0,11589,.FFMA,11571,11580,4,3,1,0,0,0,5,0,1,0,-1,2,11,0,0,-1,0x8a0,-1,-1,-1,0 
1,2,244,0,0,11598,.FFMA,11571,11589,4,3,1,0,0,0,5,0,1,0,-1,2,11,0,0,-1,0x8b0,-1,-1,-1,0 
1,2,245,0,0,11607,.FFMA,11589,11598,4,3,1,0,0,0,5,0,1,0,-1,2,11,0,0,-1,0x8c0,-1,-1,-1,0 
1,2,246,0,0,11616,.FFMA,11589,11607,4,3,1,0,0,0,5,0,1,0,-1,2,11,0,0,-1,0x8d0,-1,-1,-1,0 
1,2,247,0,0,11625,.FFMA,11607,11616,4,3,1,0,0,0,5,0,1,0,-1,2,11,0,0,-1,0x8e0,-1,-1,-1,0 
1,2,248,0,0,11634,.FFMA,11607,11625,4,3,1,0,0,0,5,0,1,0,-1,2,11,0,0,-1,0x8f0,-1,-1,-1,0 
1,2,249,0,0,11634,.RET.REL.NODEC,11625,11626,4,0,1,0,0,0,100,0,7,0,-1,4,11,0,0,-1,0x900,-1,-1,-1,0 
1,2,250,0,0,11635,.BSYNC,11625,11627,4,0,0,0,0,0,100,0,7,0,-1,4,11,0,0,-1,0x3a0,-1,-1,-1,0 
1,2,251,0,0,11643,.PRMT,11627,11634,4,2,1,0,0,0,1,0,3,0,-1,2,16,0,0,-1,0x3b0,-1,-1,-1,0 
1,2,252,0,0,11644,.IMAD.MOV.U32,11627,11635,4,2,1,0,0,0,6,0,3,0,-1,2,16,0,0,-1,0x3c0,-1,-1,-1,0 
1,2,253,0,0,11645,.PRMT,11635,11636,4,2,1,0,0,0,1,0,3,0,-1,2,16,0,0,-1,0x3d0,-1,-1,-1,0 
1,2,254,0,0,11645,.BMOV.32.CLEAR,11635,11637,4,0,1,0,0,0,100,0,7,0,-1,4,16,0,0,-1,0x3e0,-1,-1,-1,0 
1,2,255,0,0,11652,.ISETP.NE.AND,11637,11643,4,1,0,0,0,0,6,0,3,0,-1,2,16,0,0,-1,0x3f0,-1,-1,-1,0 
1,2,256,0,0,11652,.BSSY,11637,11644,4,0,0,0,0,0,100,0,7,0,-1,4,16,0,0,-1,0x400,-1,-1,-1,0 
1,2,257,0,0,11654,.PRMT,11644,11645,4,2,1,0,0,0,1,0,3,0,-1,2,16,0,0,-1,0x410,-1,-1,-1,0 
1,2,258,0,0,11655,.IMAD,11644,11646,4,2,1,0,0,0,6,0,3,0,-1,2,16,0,0,-1,0x420,-1,-1,-1,0 
1,2,259,0,0,11656,.FADD,11646,11647,4,2,1,0,0,0,5,0,1,0,-1,2,16,0,0,-1,0x430,-1,-1,-1,0 
1,2,260,0,0,11663,.IADD3,11646,11654,4,2,1,0,0,0,6,0,3,0,-1,2,16,0,0,-1,0x440,-1,-1,-1,0 
1,2,261,0,0,11663,.MOV,11654,11655,4,0,1,0,0,0,1,0,3,0,-1,2,16,0,0,-1,0x450,-1,-1,-1,0 
1,2,262,0,0,11665,.PRMT,11654,11656,4,2,1,0,0,0,1,0,3,0,-1,2,16,0,0,-1,0x460,-1,-1,-1,0 
1,2,263,0,0,11672,.I2F,11656,11663,4,1,1,0,0,0,1,0,3,0,-1,2,16,0,0,-1,0x470,-1,-1,-1,0 
1,2,264,0,0,11674,.IADD3,11656,11665,4,2,1,0,0,0,6,0,3,0,-1,2,16,0,0,-1,0x480,-1,-1,-1,0 
1,2,265,0,0,11675,.I2F,11665,11666,4,1,1,0,0,0,1,0,3,0,-1,2,16,0,0,-1,0x490,-1,-1,-1,0 
1,2,266,0,0,11683,.I2F,11665,11674,4,1,1,0,0,0,1,0,3,0,-1,2,16,0,0,-1,0x4a0,-1,-1,-1,0 
1,2,267,0,0,11684,.FADD,11674,11675,4,2,1,0,0,0,5,0,1,0,-1,2,16,0,0,-1,0x4b0,-1,-1,-1,0 
1,2,268,0,0,11693,.FADD,11674,11684,4,2,1,0,0,0,5,0,1,0,-1,2,16,0,0,-1,0x4c0,-1,-1,-1,0 
1,2,269,0,0,11693,.CALL.REL.NOINC,11684,11685,4,0,0,0,0,0,100,0,7,0,-1,4,16,0,0,-1,0x4d0,-1,-1,-1,0 
1,2,270,0,0,11696,.SHFL.IDX,11684,11686,4,4,0,0,0,0,1,0,3,0,-1,2,0,0,0,-1,0x820,-1,-1,-1,0 
1,2,272,0,0,11696,.BRA,11686,11688,4,0,0,0,0,0,100,0,7,0,-1,4,1,0,0,-1,0x840,-1,-1,-1,0 
1,2,271,0,0,11697,.FCHK,11686,11687,4,2,0,0,0,0,5,0,1,0,-1,2,16,0,0,-1,0x830,-1,-1,-1,0 
1,2,273,0,0,11697,.BMOV.32.CLEAR,11688,11689,4,0,1,0,0,0,100,0,7,0,-1,4,1,0,0,-1,0x910,-1,-1,-1,0 
1,2,274,0,0,11698,.BSSY,11688,11690,4,0,0,0,0,0,100,0,7,0,-1,4,1,0,0,-1,0x920,-1,-1,-1,0 
1,2,275,0,0,11706,.IMAD.MOV.U32,11690,11697,4,3,1,0,0,0,6,0,3,0,-1,2,1,0,0,-1,0x930,-1,-1,-1,0 
1,2,276,0,0,11706,.MOV,11690,11698,4,0,1,0,0,0,1,0,3,0,-1,2,1,0,0,-1,0x940,-1,-1,-1,0 
1,2,277,0,0,11708,.IMAD.MOV.U32,11698,11699,4,2,1,0,0,0,6,0,3,0,-1,2,1,0,0,-1,0x950,-1,-1,-1,0 
1,2,278,0,0,11708,.CALL.REL.NOINC,11698,11700,4,0,0,0,0,0,100,0,7,0,-1,4,1,0,0,-1,0x960,-1,-1,-1,0 
1,2,279,0,0,11711,.SHFL.IDX,11700,11701,4,4,0,0,0,0,1,0,3,0,-1,2,0,0,0,-1,0x9b0,-1,-1,-1,0 
1,2,280,0,0,11717,.SHF.R.U32.HI,11700,11708,4,2,1,0,0,0,6,0,3,0,-1,2,1,0,0,-1,0x9c0,-1,-1,-1,0 
1,2,281,0,0,11717,.BMOV.32.CLEAR,11708,11709,4,0,1,0,0,0,100,0,7,0,-1,4,1,0,0,-1,0x9d0,-1,-1,-1,0 
1,2,282,0,0,11726,.SHF.R.U32.HI,11708,11717,4,2,1,0,0,0,6,0,3,0,-1,2,1,0,0,-1,0x9e0,-1,-1,-1,0 
1,2,283,0,0,11726,.BSSY,11717,11718,4,0,0,0,0,0,100,0,7,0,-1,4,1,0,0,-1,0x9f0,-1,-1,-1,0 
1,2,284,0,0,11728,.LOP3.LUT,11717,11719,4,2,1,0,0,0,6,0,3,0,-1,2,1,0,0,-1,0xa00,-1,-1,-1,0 
1,2,285,0,0,11729,.IMAD.MOV.U32,11719,11720,4,2,1,0,0,0,6,0,3,0,-1,2,1,0,0,-1,0xa10,-1,-1,-1,0 
1,2,286,0,0,11735,.LOP3.LUT,11719,11726,4,2,1,0,0,0,6,0,3,0,-1,2,1,0,0,-1,0xa20,-1,-1,-1,0 
1,2,287,0,0,11737,.IADD3,11726,11728,4,2,1,0,0,0,6,0,3,0,-1,2,1,0,0,-1,0xa30,-1,-1,-1,0 
1,2,288,0,0,11744,.IADD3,11726,11735,4,2,1,0,0,0,6,0,3,0,-1,2,1,0,0,-1,0xa40,-1,-1,-1,0 
1,2,289,0,0,11746,.ISETP.GT.U32.AND,11735,11737,4,1,0,0,0,0,6,0,3,0,-1,2,1,0,0,-1,0xa50,-1,-1,-1,0 
1,2,290,0,0,11753,.ISETP.GT.U32.OR,11735,11744,4,1,0,0,0,0,6,0,3,0,-1,2,1,0,0,-1,0xa60,-1,-1,-1,0 
1,2,292,0,0,11754,.BRA,11744,11746,4,0,0,0,0,0,100,0,7,0,-1,4,0,0,0,-1,0xa80,-1,-1,-1,0 
1,2,291,0,0,11755,.IMAD.MOV.U32,11744,11745,4,3,1,0,0,0,6,0,3,0,-1,2,0,0,0,-1,0xa70,-1,-1,-1,0 
1,2,293,0,0,11756,.IMAD.MOV.U32,11746,11747,4,2,1,0,0,0,6,0,3,0,-1,2,1,0,0,-1,0xa90,-1,-1,-1,0 
1,2,294,0,0,11757,.FSETP.GTU.FTZ.AND,11746,11748,4,1,0,0,0,0,5,0,1,0,-1,2,1,0,0,-1,0xaa0,-1,-1,-1,0 
1,2,295,0,0,11765,.FSETP.GTU.FTZ.AND,11748,11756,4,1,0,0,0,0,5,0,1,0,-1,2,1,0,0,-1,0xab0,-1,-1,-1,0 
1,2,296,0,0,11765,.PLOP3.LUT,11748,11757,4,0,0,0,0,0,1,0,3,0,-1,2,1,0,0,-1,0xac0,-1,-1,-1,0 
1,2,297,0,0,11766,.BREAK,11757,11758,4,0,0,0,0,0,100,0,7,0,-1,4,0,0,0,-1,0xad0,-1,-1,-1,0 
1,2,298,0,0,11767,.BRA,11757,11759,4,0,0,0,0,0,100,0,7,0,-1,4,0,0,0,-1,0xae0,-1,-1,-1,0 
1,2,299,0,0,11769,.LOP3.LUT,11759,11760,4,3,0,0,0,0,6,0,3,0,-1,2,1,0,0,-1,0xaf0,-1,-1,-1,0 
1,2,300,0,0,11769,.BREAK,11759,11761,4,0,0,0,0,0,100,0,7,0,-1,4,0,0,0,-1,0xb00,-1,-1,-1,0 
1,2,301,0,0,11770,.BRA,11761,11762,4,0,0,0,0,0,100,0,7,0,-1,4,0,0,0,-1,0xb10,-1,-1,-1,0 
1,2,302,0,0,11772,.FSETP.NEU.FTZ.AND,11761,11763,4,1,0,0,0,0,5,0,1,0,-1,2,1,0,0,-1,0xb20,-1,-1,-1,0 
1,2,303,0,0,11773,.FSETP.NEU.FTZ.AND,11763,11764,4,1,0,0,0,0,5,0,1,0,-1,2,1,0,0,-1,0xb30,-1,-1,-1,0 
1,2,304,0,0,11774,.FSETP.NEU.FTZ.AND,11763,11765,4,1,0,0,0,0,5,0,1,0,-1,2,1,0,0,-1,0xb40,-1,-1,-1,0 
1,2,305,0,0,11774,.BREAK,11765,11766,4,0,0,0,0,0,100,0,7,0,-1,4,0,0,0,-1,0xb50,-1,-1,-1,0 
1,2,306,0,0,11775,.BRA,11765,11767,4,0,0,0,0,0,100,0,7,0,-1,4,0,0,0,-1,0xb60,-1,-1,-1,0 
1,2,307,0,0,11777,.LOP3.LUT,11767,11768,4,3,0,0,0,0,6,0,3,0,-1,2,1,0,0,-1,0xb70,-1,-1,-1,0 
1,2,308,0,0,11777,.PLOP3.LUT,11767,11769,4,0,0,0,0,0,1,0,3,0,-1,2,1,0,0,-1,0xb80,-1,-1,-1,0 
1,2,309,0,0,11778,.BREAK,11769,11770,4,0,0,0,0,0,100,0,7,0,-1,4,1,0,0,-1,0xb90,-1,-1,-1,0 
1,2,310,0,0,11779,.BRA,11769,11771,4,0,0,0,0,0,100,0,7,0,-1,4,1,0,0,-1,0xba0,-1,-1,-1,0 
1,2,311,0,0,11781,.IMAD.MOV.U32,11771,11772,4,2,1,0,0,0,6,0,3,0,-1,2,1,0,0,-1,0x10c0,-1,-1,-1,0 
1,2,312,0,0,11782,.LOP3.LUT,11771,11773,4,2,1,0,0,0,6,0,3,0,-1,2,1,0,0,-1,0x10d0,-1,-1,-1,0 
1,2,313,0,0,11782,.RET.REL.NODEC,11773,11774,4,0,1,0,0,0,100,0,7,0,-1,4,1,0,0,-1,0x10e0,-1,-1,-1,0 
1,2,314,0,0,11783,.BSYNC,11773,11775,4,0,0,0,0,0,100,0,7,0,-1,4,1,0,0,-1,0x970,-1,-1,-1,0 
1,2,315,0,0,11791,.IMAD.MOV.U32,11775,11782,4,3,1,0,0,0,6,0,3,0,-1,2,1,0,0,-1,0x980,-1,-1,-1,0 
1,2,316,0,0,11791,.MOV,11775,11783,4,0,1,0,0,0,1,0,3,0,-1,2,1,0,0,-1,0x990,-1,-1,-1,0 
1,2,317,0,0,11792,.RET.REL.NODEC,11783,11784,4,0,1,0,0,0,100,0,7,0,-1,4,1,0,0,-1,0x9a0,-1,-1,-1,0 
1,2,318,0,0,11793,.BSYNC,11783,11785,4,0,0,0,0,0,100,0,7,0,-1,4,1,0,0,-1,0x4e0,-1,-1,-1,0 
1,2,319,0,0,11800,.IMAD.MOV.U32,11785,11791,4,2,1,0,0,0,6,0,3,0,-1,2,15,0,0,-1,0x850,-1,-1,-1,0 
1,2,320,0,0,11809,.FADD.FTZ,11785,11800,4,2,1,0,0,0,5,0,1,0,-1,2,15,0,0,-1,0x860,-1,-1,-1,0 
1,2,322,0,0,11811,.IMAD.MOV.U32,11800,11802,4,2,1,0,0,0,6,0,3,0,-1,2,15,0,0,-1,0x880,-1,-1,-1,0 
1,2,321,0,0,11826,.MUFU.RCP,11800,11801,20,1,1,0,0,0,2,0,4,0,-1,8,15,0,0,-1,0x870,-1,-1,-1,0 
1,2,323,0,0,11835,.FFMA,11802,11826,4,2,1,0,0,0,5,0,1,0,-1,2,15,0,0,-1,0x890,-1,-1,-1,0 
1,2,324,0,0,11844,.FFMA,11802,11835,4,3,1,0,0,0,5,0,1,0,-1,2,15,0,0,-1,0x8a0,-1,-1,-1,0 
1,2,325,0,0,11853,.FFMA,11835,11844,4,3,1,0,0,0,5,0,1,0,-1,2,15,0,0,-1,0x8b0,-1,-1,-1,0 
1,2,326,0,0,11862,.FFMA,11835,11853,4,3,1,0,0,0,5,0,1,0,-1,2,15,0,0,-1,0x8c0,-1,-1,-1,0 
1,2,327,0,0,11871,.FFMA,11853,11862,4,3,1,0,0,0,5,0,1,0,-1,2,15,0,0,-1,0x8d0,-1,-1,-1,0 
1,2,328,0,0,11880,.FFMA,11853,11871,4,3,1,0,0,0,5,0,1,0,-1,2,15,0,0,-1,0x8e0,-1,-1,-1,0 
1,2,329,0,0,11889,.FFMA,11871,11880,4,3,1,0,0,0,5,0,1,0,-1,2,15,0,0,-1,0x8f0,-1,-1,-1,0 
1,2,330,0,0,11889,.RET.REL.NODEC,11871,11881,4,0,1,0,0,0,100,0,7,0,-1,4,15,0,0,-1,0x900,-1,-1,-1,0 
1,2,331,0,0,11890,.BSYNC,11881,11882,4,0,0,0,0,0,100,0,7,0,-1,4,15,0,0,-1,0x4e0,-1,-1,-1,0 
1,2,332,0,0,11898,.FADD,11881,11889,4,2,1,0,0,0,5,0,1,0,-1,2,16,0,0,-1,0x4f0,-1,-1,-1,0 
1,2,333,0,0,11898,.BMOV.32.CLEAR,11889,11890,4,0,1,0,0,0,100,0,7,0,-1,4,16,0,0,-1,0x500,-1,-1,-1,0 
1,2,334,0,0,11900,.FADD,11889,11891,4,1,1,0,0,0,5,0,1,0,-1,2,16,0,0,-1,0x510,-1,-1,-1,0 
1,2,335,0,0,11900,.BSSY,11891,11892,4,0,0,0,0,0,100,0,7,0,-1,4,16,0,0,-1,0x520,-1,-1,-1,0 
1,2,336,0,0,11907,.FADD,11891,11898,4,1,1,0,0,0,5,0,1,0,-1,2,16,0,0,-1,0x530,-1,-1,-1,0 
1,2,337,0,0,11916,.FMUL,11898,11907,4,2,1,0,0,0,5,0,1,0,-1,2,16,0,0,-1,0x540,-1,-1,-1,0 
1,2,338,0,0,11925,.FFMA,11898,11916,4,3,1,0,0,0,5,0,1,0,-1,2,16,0,0,-1,0x550,-1,-1,-1,0 
1,2,339,0,0,11934,.IADD3,11916,11925,4,2,1,0,0,0,6,0,3,0,-1,2,16,0,0,-1,0x560,-1,-1,-1,0 
1,2,340,0,0,11943,.ISETP.GT.U32.AND,11916,11934,4,1,0,0,0,0,6,0,3,0,-1,2,16,0,0,-1,0x570,-1,-1,-1,0 
1,2,341,0,0,11943,.BRA,11934,11935,4,0,0,0,0,0,100,0,7,0,-1,4,16,0,0,-1,0x580,-1,-1,-1,0 
1,2,342,0,0,11961,.MUFU.RSQ,11934,11936,20,1,1,0,0,0,2,0,4,0,-1,8,16,0,0,-1,0x5f0,-1,-1,-1,0 
1,2,343,0,0,11970,.FMUL.FTZ,11936,11961,4,2,1,0,0,0,5,0,1,0,-1,2,16,0,0,-1,0x600,-1,-1,-1,0 
1,2,344,0,0,11971,.FMUL.FTZ,11936,11962,4,1,1,0,0,0,5,0,1,0,-1,2,16,0,0,-1,0x610,-1,-1,-1,0 
1,2,345,0,0,11979,.FADD.FTZ,11962,11970,4,2,1,0,0,0,5,0,1,0,-1,2,16,0,0,-1,0x620,-1,-1,-1,0 
1,2,346,0,0,11988,.FFMA,11962,11979,4,3,1,0,0,0,5,0,1,0,-1,2,16,0,0,-1,0x630,-1,-1,-1,0 
1,2,347,0,0,11997,.FFMA,11979,11988,4,3,1,0,0,0,5,0,1,0,-1,2,16,0,0,-1,0x640,-1,-1,-1,0 
1,2,348,0,0,11997,.BSYNC,11979,11989,4,0,0,0,0,0,100,0,7,0,-1,4,16,0,0,-1,0x650,-1,-1,-1,0 
1,2,349,0,0,11999,.IMAD.MOV.U32,11989,11990,4,2,1,0,0,0,6,0,3,0,-1,2,16,0,0,-1,0x660,-1,-1,-1,0 
1,2,350,0,0,12008,.IMAD.WIDE,11989,11999,4,2,1,0,0,0,6,0,3,0,-1,2,16,0,0,-1,0x670,-1,-1,-1,0 
1,2,351,0,0,12012,.STG.E.SYS,11999,12008,1,2,0,0,1,4,11,0,6,0,-1,1,16,0,0,-1,0x680,-1,-1,-1,1 
1,2,352,0,0,12014,.EXIT,11999,12009,1,0,0,0,0,0,17,0,3,0,-1,1,16,0,0,-1,0x690,-1,-1,-1,0 
Destroy streams for kernel 2: size 0


gpgpu_simulation_time = 0 days, 0 hrs, 0 min, 1 sec (1 sec)
gpgpu_simulation_rate = 3920 (inst/sec)
gpgpu_simulation_rate = 12200 (cycle/sec)
gpgpu_silicon_slowdown = 92786x
launching memcpy command : MemcpyHtoD,0x00007fb125700000,735000
-kernel name = _Z6euclidPcffPfiii
-kernel id = 3
-grid dim = (938,1,1)
-block dim = (16,1,1)
-shmem = 0
-nregs = 21
-binary version = 70
-cuda stream id = 0
-shmem base_addr = 0x00007fb15c000000
-local mem base_addr = 0x00007fb15e000000
-nvbit version = 1.4
-accelsim tracer version = 3
launching kernel command : /scratch/santosh/gpu_simulation/accel-sim-framework/traces/rodinia_2.0-ft/11.0/nn-rodinia-2.0-ft/__data_filelist_4_3_30_90___data_filelist_4_3_30_90_result_txt/traces/kernel-3.traceg
GPGPU-Sim uArch: Shader 0 bind to kernel 3 '_Z6euclidPcffPfiii'
GPGPU-Sim: Reconfigure L1 cache to 128KB
GPGPUsim: cta_size: 16
ctaid: 0, start warp: 0, end_warp: 1, start_thread: 0, end_thread: 16
thread block = 0,0,0
warp id: 0
warp_id: 0, insts: 222
1,3,353,0,0,17211,.IMAD.MOV.U32,17201,17202,4,2,1,0,0,0,6,0,3,0,-1,2,16,0,0,-1,0,-1,-1,-1,0 
1,3,355,0,0,17212,.S2R,17203,17204,4,0,1,0,0,0,1,0,3,0,-1,2,16,0,0,-1,0x20,-1,-1,-1,0 
1,3,354,0,0,17213,.SHFL.IDX,17201,17203,4,4,0,0,0,0,1,0,3,0,-1,2,0,0,0,-1,0x10,-1,-1,-1,0 
1,3,356,0,0,17213,.S2R,17203,17205,4,0,1,0,0,0,1,0,3,0,-1,2,16,0,0,-1,0x30,-1,-1,-1,0 
1,3,357,0,0,17222,.IMAD,17205,17213,4,2,1,0,0,0,6,0,3,0,-1,2,16,0,0,-1,0x40,-1,-1,-1,0 
1,3,359,0,0,17228,.EXIT,17222,17223,1,0,0,0,0,0,17,0,3,0,-1,1,0,0,0,-1,0x60,-1,-1,-1,0 
1,3,358,0,0,17231,.ISETP.GE.AND,17205,17222,4,1,0,0,0,0,6,0,3,0,-1,2,16,0,0,-1,0x50,-1,-1,-1,0 
1,3,360,0,0,17233,.IMAD.MOV.U32,17222,17224,4,2,1,0,0,0,6,0,3,0,-1,2,16,0,0,-1,0x70,-1,-1,-1,0 
1,3,361,0,0,17242,.IMAD,17224,17233,4,2,1,0,0,0,6,0,3,0,-1,2,16,0,0,-1,0x80,-1,-1,-1,0 
1,3,362,0,0,17251,.IADD3,17224,17242,4,2,1,0,0,0,6,0,3,0,-1,2,16,0,0,-1,0x90,-1,-1,-1,0 
1,3,363,0,0,17252,.LEA.HI.X.SX32,17242,17243,4,1,1,0,0,0,6,0,3,0,-1,2,16,0,0,-1,0xa0,-1,-1,-1,0 
1,3,372,0,0,17267,.BMOV.32.CLEAR,17257,17259,4,0,1,0,0,0,100,0,7,0,-1,4,16,0,0,-1,0x130,-1,-1,-1,0 
1,3,373,0,0,17268,.BSSY,17259,17260,4,0,0,0,0,0,100,0,7,0,-1,4,16,0,0,-1,0x140,-1,-1,-1,0 
1,3,364,0,0,17544,.LDG.E.U8.SYS,17242,17251,1,1,1,1,0,1,8,0,6,0,-1,1,16,0,0,-1,0xb0,-1,-1,-1,1 
1,3,365,0,0,17548,.LDG.E.U8.SYS,17251,17252,1,1,1,1,0,1,8,0,6,0,-1,1,16,0,0,-1,0xc0,-1,-1,-1,1 
1,3,366,0,0,17549,.LDG.E.U8.SYS,17251,17253,1,1,1,1,0,1,8,0,6,0,-1,1,16,0,0,-1,0xd0,-1,-1,-1,1 
1,3,374,0,0,17553,.PRMT,17259,17544,4,2,1,0,0,0,1,0,3,0,-1,2,16,0,0,-1,0x150,-1,-1,-1,0 
1,3,375,0,0,17558,.PRMT,17544,17548,4,2,1,0,0,0,1,0,3,0,-1,2,16,0,0,-1,0x160,-1,-1,-1,0 
1,3,368,0,0,17560,.LDG.E.U8.SYS,17253,17255,1,1,1,1,0,1,8,0,6,0,-1,1,16,0,0,-1,0xf0,-1,-1,-1,1 
1,3,376,0,0,17562,.ISETP.NE.AND,17544,17553,4,1,0,0,0,0,6,0,3,0,-1,2,16,0,0,-1,0x170,-1,-1,-1,0 
1,3,377,0,0,17563,.PRMT,17553,17554,4,2,1,0,0,0,1,0,3,0,-1,2,16,0,0,-1,0x180,-1,-1,-1,0 
1,3,367,0,0,17565,.LDG.E.U8.SYS,17253,17254,1,1,1,1,0,1,8,0,6,0,-1,1,16,0,0,-1,0xe0,-1,-1,-1,1 
1,3,369,0,0,17566,.LDG.E.U8.SYS,17255,17256,1,1,1,1,0,1,8,0,6,0,-1,1,16,0,0,-1,0x100,-1,-1,-1,1 
1,3,378,0,0,17567,.ISETP.NE.AND,17553,17558,4,1,0,0,0,0,6,0,3,0,-1,2,16,0,0,-1,0x190,-1,-1,-1,0 
1,3,370,0,0,17569,.LDG.E.U8.SYS,17255,17257,1,1,1,1,0,1,8,0,6,0,-1,1,16,0,0,-1,0x110,-1,-1,-1,1 
1,3,371,0,0,17571,.LDG.E.U8.SYS,17257,17258,1,1,1,1,0,1,8,0,6,0,-1,1,16,0,0,-1,0x120,-1,-1,-1,1 
1,3,379,0,0,17575,.PRMT,17558,17565,4,2,1,0,0,0,1,0,3,0,-1,2,16,0,0,-1,0x1a0,-1,-1,-1,0 
1,3,380,0,0,17575,.ISETP.NE.AND,17558,17566,4,1,0,0,0,0,6,0,3,0,-1,2,16,0,0,-1,0x1b0,-1,-1,-1,0 
1,3,381,0,0,17584,.ISETP.NE.AND,17566,17575,4,1,0,0,0,0,6,0,3,0,-1,2,16,0,0,-1,0x1c0,-1,-1,-1,0 
1,3,382,0,0,17585,.PRMT,17566,17576,4,2,1,0,0,0,1,0,3,0,-1,2,0,0,0,-1,0x1d0,-1,-1,-1,0 
1,3,383,0,0,17586,.IMAD.MOV.U32,17576,17577,4,2,1,0,0,0,6,0,3,0,-1,2,0,0,0,-1,0x1e0,-1,-1,-1,0 
1,3,384,0,0,17587,.PRMT,17576,17578,4,2,1,0,0,0,1,0,3,0,-1,2,15,0,0,-1,0x1f0,-1,-1,-1,0 
1,3,385,0,0,17588,.IMAD.MOV.U32,17578,17579,4,2,1,0,0,0,6,0,3,0,-1,2,15,0,0,-1,0x200,-1,-1,-1,0 
1,3,386,0,0,17595,.IMAD,17578,17586,4,2,1,0,0,0,6,0,3,0,-1,2,0,0,0,-1,0x210,-1,-1,-1,0 
1,3,387,0,0,17596,.PRMT,17586,17587,4,2,1,0,0,0,1,0,3,0,-1,2,16,0,0,-1,0x220,-1,-1,-1,0 
1,3,388,0,0,17597,.IMAD,17586,17588,4,2,1,0,0,0,6,0,3,0,-1,2,15,0,0,-1,0x230,-1,-1,-1,0 
1,3,389,0,0,17598,.PRMT,17588,17589,4,2,1,0,0,0,1,0,3,0,-1,2,9,0,0,-1,0x240,-1,-1,-1,0 
1,3,390,0,0,17600,.IMAD.MOV.U32,17588,17590,4,3,1,0,0,0,6,0,3,0,-1,2,16,0,0,-1,0x250,-1,-1,-1,0 
1,3,391,0,0,17605,.IMAD.MOV.U32,17590,17596,4,3,1,0,0,0,6,0,3,0,-1,2,16,0,0,-1,0x260,-1,-1,-1,0 
1,3,392,0,0,17607,.IMAD.MOV.U32,17590,17598,4,3,1,0,0,0,6,0,3,0,-1,2,9,0,0,-1,0x270,-1,-1,-1,0 
1,3,393,0,0,17608,.PRMT,17598,17599,4,2,1,0,0,0,1,0,3,0,-1,2,16,0,0,-1,0x280,-1,-1,-1,0 
1,3,394,0,0,17609,.IMAD.MOV.U32,17598,17600,4,2,1,0,0,0,6,0,3,0,-1,2,9,0,0,-1,0x290,-1,-1,-1,0 
1,3,395,0,0,17614,.IADD3,17600,17605,4,2,1,0,0,0,6,0,3,0,-1,2,16,0,0,-1,0x2a0,-1,-1,-1,0 
1,3,396,0,0,17615,.I2F,17600,17606,4,1,1,0,0,0,1,0,3,0,-1,2,0,0,0,-1,0x2b0,-1,-1,-1,0 
1,3,397,0,0,17616,.I2F,17606,17607,4,1,1,0,0,0,1,0,3,0,-1,2,15,0,0,-1,0x2c0,-1,-1,-1,0 
1,3,398,0,0,17618,.IMAD,17606,17609,4,2,1,0,0,0,6,0,3,0,-1,2,9,0,0,-1,0x2d0,-1,-1,-1,0 
1,3,399,0,0,17619,.IADD3,17609,17610,4,2,1,0,0,0,6,0,3,0,-1,2,16,0,0,-1,0x2e0,-1,-1,-1,0 
1,3,400,0,0,17621,.IMAD.MOV.U32,17609,17611,4,3,1,0,0,0,6,0,3,0,-1,2,16,0,0,-1,0x2f0,-1,-1,-1,0 
1,3,401,0,0,17623,.I2F,17611,17614,4,1,1,0,0,0,1,0,3,0,-1,2,16,0,0,-1,0x300,-1,-1,-1,0 
1,3,402,0,0,17624,.PRMT,17611,17615,4,2,1,0,0,0,1,0,3,0,-1,2,16,0,0,-1,0x310,-1,-1,-1,0 
1,3,403,0,0,17628,.I2F,17615,17619,4,1,1,0,0,0,1,0,3,0,-1,2,16,0,0,-1,0x320,-1,-1,-1,0 
1,3,404,0,0,17630,.I2F,17615,17621,4,1,1,0,0,0,1,0,3,0,-1,2,9,0,0,-1,0x330,-1,-1,-1,0 
1,3,405,0,0,17631,.FADD,17621,17622,4,2,1,0,0,0,5,0,1,0,-1,2,15,0,0,-1,0x340,-1,-1,-1,0 
1,3,406,0,0,17633,.ISETP.NE.AND,17621,17624,4,1,0,0,0,0,6,0,3,0,-1,2,16,0,0,-1,0x350,-1,-1,-1,0 
1,3,407,0,0,17634,.IMAD.MOV.U32,17624,17625,4,2,1,0,0,0,6,0,3,0,-1,2,16,0,0,-1,0x360,-1,-1,-1,0 
1,3,408,0,0,17634,.MOV,17624,17626,4,0,1,0,0,0,1,0,3,0,-1,2,16,0,0,-1,0x370,-1,-1,-1,0 
1,3,409,0,0,17640,.FADD,17626,17631,4,2,1,0,0,0,5,0,1,0,-1,2,16,0,0,-1,0x380,-1,-1,-1,0 
1,3,410,0,0,17640,.CALL.REL.NOINC,17626,17632,4,0,0,0,0,0,100,0,7,0,-1,4,16,0,0,-1,0x390,-1,-1,-1,0 
1,3,411,0,0,17643,.SHFL.IDX,17632,17633,4,4,0,0,0,0,1,0,3,0,-1,2,0,0,0,-1,0x820,-1,-1,-1,0 
1,3,413,0,0,17643,.BRA,17634,17635,4,0,0,0,0,0,100,0,7,0,-1,4,3,0,0,-1,0x840,-1,-1,-1,0 
1,3,412,0,0,17644,.FCHK,17632,17634,4,2,0,0,0,0,5,0,1,0,-1,2,16,0,0,-1,0x830,-1,-1,-1,0 
1,3,414,0,0,17644,.BMOV.32.CLEAR,17634,17636,4,0,1,0,0,0,100,0,7,0,-1,4,3,0,0,-1,0x910,-1,-1,-1,0 
1,3,415,0,0,17645,.BSSY,17636,17637,4,0,0,0,0,0,100,0,7,0,-1,4,3,0,0,-1,0x920,-1,-1,-1,0 
1,3,416,0,0,17653,.IMAD.MOV.U32,17636,17644,4,3,1,0,0,0,6,0,3,0,-1,2,3,0,0,-1,0x930,-1,-1,-1,0 
1,3,417,0,0,17653,.MOV,17644,17645,4,0,1,0,0,0,1,0,3,0,-1,2,3,0,0,-1,0x940,-1,-1,-1,0 
1,3,418,0,0,17655,.IMAD.MOV.U32,17644,17646,4,2,1,0,0,0,6,0,3,0,-1,2,3,0,0,-1,0x950,-1,-1,-1,0 
1,3,419,0,0,17655,.CALL.REL.NOINC,17646,17647,4,0,0,0,0,0,100,0,7,0,-1,4,3,0,0,-1,0x960,-1,-1,-1,0 
1,3,420,0,0,17658,.SHFL.IDX,17646,17648,4,4,0,0,0,0,1,0,3,0,-1,2,0,0,0,-1,0x9b0,-1,-1,-1,0 
1,3,421,0,0,17664,.SHF.R.U32.HI,17648,17655,4,2,1,0,0,0,6,0,3,0,-1,2,3,0,0,-1,0x9c0,-1,-1,-1,0 
1,3,422,0,0,17664,.BMOV.32.CLEAR,17648,17656,4,0,1,0,0,0,100,0,7,0,-1,4,3,0,0,-1,0x9d0,-1,-1,-1,0 
1,3,423,0,0,17673,.SHF.R.U32.HI,17656,17664,4,2,1,0,0,0,6,0,3,0,-1,2,3,0,0,-1,0x9e0,-1,-1,-1,0 
1,3,424,0,0,17673,.BSSY,17656,17665,4,0,0,0,0,0,100,0,7,0,-1,4,3,0,0,-1,0x9f0,-1,-1,-1,0 
1,3,425,0,0,17675,.LOP3.LUT,17665,17666,4,2,1,0,0,0,6,0,3,0,-1,2,3,0,0,-1,0xa00,-1,-1,-1,0 
1,3,426,0,0,17676,.IMAD.MOV.U32,17665,17667,4,2,1,0,0,0,6,0,3,0,-1,2,3,0,0,-1,0xa10,-1,-1,-1,0 
1,3,427,0,0,17682,.LOP3.LUT,17667,17673,4,2,1,0,0,0,6,0,3,0,-1,2,3,0,0,-1,0xa20,-1,-1,-1,0 
1,3,428,0,0,17684,.IADD3,17667,17675,4,2,1,0,0,0,6,0,3,0,-1,2,3,0,0,-1,0xa30,-1,-1,-1,0 
1,3,429,0,0,17691,.IADD3,17675,17682,4,2,1,0,0,0,6,0,3,0,-1,2,3,0,0,-1,0xa40,-1,-1,-1,0 
1,3,430,0,0,17693,.ISETP.GT.U32.AND,17675,17684,4,1,0,0,0,0,6,0,3,0,-1,2,3,0,0,-1,0xa50,-1,-1,-1,0 
1,3,431,0,0,17700,.ISETP.GT.U32.OR,17684,17691,4,1,0,0,0,0,6,0,3,0,-1,2,3,0,0,-1,0xa60,-1,-1,-1,0 
1,3,433,0,0,17701,.BRA,17692,17693,4,0,0,0,0,0,100,0,7,0,-1,4,0,0,0,-1,0xa80,-1,-1,-1,0 
1,3,432,0,0,17702,.IMAD.MOV.U32,17684,17692,4,3,1,0,0,0,6,0,3,0,-1,2,0,0,0,-1,0xa70,-1,-1,-1,0 
1,3,434,0,0,17703,.IMAD.MOV.U32,17692,17694,4,2,1,0,0,0,6,0,3,0,-1,2,3,0,0,-1,0xa90,-1,-1,-1,0 
1,3,435,0,0,17704,.FSETP.GTU.FTZ.AND,17694,17695,4,1,0,0,0,0,5,0,1,0,-1,2,3,0,0,-1,0xaa0,-1,-1,-1,0 
1,3,436,0,0,17712,.FSETP.GTU.FTZ.AND,17694,17703,4,1,0,0,0,0,5,0,1,0,-1,2,3,0,0,-1,0xab0,-1,-1,-1,0 
1,3,437,0,0,17712,.PLOP3.LUT,17703,17704,4,0,0,0,0,0,1,0,3,0,-1,2,3,0,0,-1,0xac0,-1,-1,-1,0 
1,3,438,0,0,17713,.BREAK,17703,17705,4,0,0,0,0,0,100,0,7,0,-1,4,0,0,0,-1,0xad0,-1,-1,-1,0 
1,3,439,0,0,17714,.BRA,17705,17706,4,0,0,0,0,0,100,0,7,0,-1,4,0,0,0,-1,0xae0,-1,-1,-1,0 
1,3,440,0,0,17716,.LOP3.LUT,17705,17707,4,3,0,0,0,0,6,0,3,0,-1,2,3,0,0,-1,0xaf0,-1,-1,-1,0 
1,3,441,0,0,17716,.BREAK,17707,17708,4,0,0,0,0,0,100,0,7,0,-1,4,0,0,0,-1,0xb00,-1,-1,-1,0 
1,3,442,0,0,17717,.BRA,17707,17709,4,0,0,0,0,0,100,0,7,0,-1,4,0,0,0,-1,0xb10,-1,-1,-1,0 
1,3,443,0,0,17719,.FSETP.NEU.FTZ.AND,17709,17710,4,1,0,0,0,0,5,0,1,0,-1,2,3,0,0,-1,0xb20,-1,-1,-1,0 
1,3,444,0,0,17720,.FSETP.NEU.FTZ.AND,17709,17711,4,1,0,0,0,0,5,0,1,0,-1,2,3,0,0,-1,0xb30,-1,-1,-1,0 
1,3,445,0,0,17721,.FSETP.NEU.FTZ.AND,17711,17712,4,1,0,0,0,0,5,0,1,0,-1,2,3,0,0,-1,0xb40,-1,-1,-1,0 
1,3,446,0,0,17721,.BREAK,17711,17713,4,0,0,0,0,0,100,0,7,0,-1,4,0,0,0,-1,0xb50,-1,-1,-1,0 
1,3,447,0,0,17722,.BRA,17713,17714,4,0,0,0,0,0,100,0,7,0,-1,4,0,0,0,-1,0xb60,-1,-1,-1,0 
1,3,448,0,0,17724,.LOP3.LUT,17713,17715,4,3,0,0,0,0,6,0,3,0,-1,2,3,0,0,-1,0xb70,-1,-1,-1,0 
1,3,449,0,0,17724,.PLOP3.LUT,17715,17716,4,0,0,0,0,0,1,0,3,0,-1,2,3,0,0,-1,0xb80,-1,-1,-1,0 
1,3,450,0,0,17725,.BREAK,17715,17717,4,0,0,0,0,0,100,0,7,0,-1,4,3,0,0,-1,0xb90,-1,-1,-1,0 
1,3,451,0,0,17726,.BRA,17717,17718,4,0,0,0,0,0,100,0,7,0,-1,4,3,0,0,-1,0xba0,-1,-1,-1,0 
1,3,452,0,0,17728,.IMAD.MOV.U32,17717,17719,4,2,1,0,0,0,6,0,3,0,-1,2,3,0,0,-1,0x10c0,-1,-1,-1,0 
1,3,453,0,0,17729,.LOP3.LUT,17719,17720,4,2,1,0,0,0,6,0,3,0,-1,2,3,0,0,-1,0x10d0,-1,-1,-1,0 
1,3,454,0,0,17729,.RET.REL.NODEC,17719,17721,4,0,1,0,0,0,100,0,7,0,-1,4,3,0,0,-1,0x10e0,-1,-1,-1,0 
1,3,455,0,0,17730,.BSYNC,17721,17722,4,0,0,0,0,0,100,0,7,0,-1,4,3,0,0,-1,0x970,-1,-1,-1,0 
1,3,456,0,0,17738,.IMAD.MOV.U32,17721,17729,4,3,1,0,0,0,6,0,3,0,-1,2,3,0,0,-1,0x980,-1,-1,-1,0 
1,3,457,0,0,17738,.MOV,17729,17730,4,0,1,0,0,0,1,0,3,0,-1,2,3,0,0,-1,0x990,-1,-1,-1,0 
1,3,458,0,0,17739,.RET.REL.NODEC,17729,17731,4,0,1,0,0,0,100,0,7,0,-1,4,3,0,0,-1,0x9a0,-1,-1,-1,0 
1,3,459,0,0,17740,.BSYNC,17731,17732,4,0,0,0,0,0,100,0,7,0,-1,4,3,0,0,-1,0x3a0,-1,-1,-1,0 
1,3,460,0,0,17747,.IMAD.MOV.U32,17731,17738,4,2,1,0,0,0,6,0,3,0,-1,2,13,0,0,-1,0x850,-1,-1,-1,0 
1,3,461,0,0,17756,.FADD.FTZ,17738,17747,4,2,1,0,0,0,5,0,1,0,-1,2,13,0,0,-1,0x860,-1,-1,-1,0 
1,3,463,0,0,17758,.IMAD.MOV.U32,17748,17749,4,2,1,0,0,0,6,0,3,0,-1,2,13,0,0,-1,0x880,-1,-1,-1,0 
1,3,462,0,0,17773,.MUFU.RCP,17738,17748,20,1,1,0,0,0,2,0,4,0,-1,8,13,0,0,-1,0x870,-1,-1,-1,0 
1,3,464,0,0,17782,.FFMA,17748,17773,4,2,1,0,0,0,5,0,1,0,-1,2,13,0,0,-1,0x890,-1,-1,-1,0 
1,3,465,0,0,17791,.FFMA,17773,17782,4,3,1,0,0,0,5,0,1,0,-1,2,13,0,0,-1,0x8a0,-1,-1,-1,0 
1,3,466,0,0,17800,.FFMA,17773,17791,4,3,1,0,0,0,5,0,1,0,-1,2,13,0,0,-1,0x8b0,-1,-1,-1,0 
1,3,467,0,0,17809,.FFMA,17791,17800,4,3,1,0,0,0,5,0,1,0,-1,2,13,0,0,-1,0x8c0,-1,-1,-1,0 
1,3,468,0,0,17818,.FFMA,17791,17809,4,3,1,0,0,0,5,0,1,0,-1,2,13,0,0,-1,0x8d0,-1,-1,-1,0 
1,3,469,0,0,17827,.FFMA,17809,17818,4,3,1,0,0,0,5,0,1,0,-1,2,13,0,0,-1,0x8e0,-1,-1,-1,0 
1,3,470,0,0,17836,.FFMA,17809,17827,4,3,1,0,0,0,5,0,1,0,-1,2,13,0,0,-1,0x8f0,-1,-1,-1,0 
1,3,471,0,0,17836,.RET.REL.NODEC,17827,17828,4,0,1,0,0,0,100,0,7,0,-1,4,13,0,0,-1,0x900,-1,-1,-1,0 
1,3,472,0,0,17837,.BSYNC,17827,17829,4,0,0,0,0,0,100,0,7,0,-1,4,13,0,0,-1,0x3a0,-1,-1,-1,0 
1,3,473,0,0,17845,.PRMT,17829,17836,4,2,1,0,0,0,1,0,3,0,-1,2,16,0,0,-1,0x3b0,-1,-1,-1,0 
1,3,474,0,0,17846,.IMAD.MOV.U32,17829,17837,4,2,1,0,0,0,6,0,3,0,-1,2,15,0,0,-1,0x3c0,-1,-1,-1,0 
1,3,475,0,0,17847,.PRMT,17837,17838,4,2,1,0,0,0,1,0,3,0,-1,2,15,0,0,-1,0x3d0,-1,-1,-1,0 
1,3,476,0,0,17847,.BMOV.32.CLEAR,17837,17839,4,0,1,0,0,0,100,0,7,0,-1,4,16,0,0,-1,0x3e0,-1,-1,-1,0 
1,3,477,0,0,17854,.ISETP.NE.AND,17839,17845,4,1,0,0,0,0,6,0,3,0,-1,2,16,0,0,-1,0x3f0,-1,-1,-1,0 
1,3,478,0,0,17854,.BSSY,17839,17846,4,0,0,0,0,0,100,0,7,0,-1,4,16,0,0,-1,0x400,-1,-1,-1,0 
1,3,479,0,0,17856,.PRMT,17846,17847,4,2,1,0,0,0,1,0,3,0,-1,2,16,0,0,-1,0x410,-1,-1,-1,0 
1,3,480,0,0,17857,.IMAD,17846,17848,4,2,1,0,0,0,6,0,3,0,-1,2,15,0,0,-1,0x420,-1,-1,-1,0 
1,3,481,0,0,17858,.FADD,17848,17849,4,2,1,0,0,0,5,0,1,0,-1,2,16,0,0,-1,0x430,-1,-1,-1,0 
1,3,482,0,0,17865,.IADD3,17848,17856,4,2,1,0,0,0,6,0,3,0,-1,2,16,0,0,-1,0x440,-1,-1,-1,0 
1,3,483,0,0,17865,.MOV,17856,17857,4,0,1,0,0,0,1,0,3,0,-1,2,16,0,0,-1,0x450,-1,-1,-1,0 
1,3,484,0,0,17867,.PRMT,17856,17858,4,2,1,0,0,0,1,0,3,0,-1,2,16,0,0,-1,0x460,-1,-1,-1,0 
1,3,485,0,0,17874,.I2F,17858,17865,4,1,1,0,0,0,1,0,3,0,-1,2,16,0,0,-1,0x470,-1,-1,-1,0 
1,3,486,0,0,17876,.IADD3,17858,17867,4,2,1,0,0,0,6,0,3,0,-1,2,16,0,0,-1,0x480,-1,-1,-1,0 
1,3,487,0,0,17877,.I2F,17867,17868,4,1,1,0,0,0,1,0,3,0,-1,2,15,0,0,-1,0x490,-1,-1,-1,0 
1,3,488,0,0,17885,.I2F,17867,17876,4,1,1,0,0,0,1,0,3,0,-1,2,16,0,0,-1,0x4a0,-1,-1,-1,0 
1,3,489,0,0,17886,.FADD,17876,17877,4,2,1,0,0,0,5,0,1,0,-1,2,15,0,0,-1,0x4b0,-1,-1,-1,0 
1,3,490,0,0,17895,.FADD,17876,17886,4,2,1,0,0,0,5,0,1,0,-1,2,16,0,0,-1,0x4c0,-1,-1,-1,0 
1,3,491,0,0,17895,.CALL.REL.NOINC,17886,17887,4,0,0,0,0,0,100,0,7,0,-1,4,16,0,0,-1,0x4d0,-1,-1,-1,0 
1,3,492,0,0,17898,.SHFL.IDX,17886,17888,4,4,0,0,0,0,1,0,3,0,-1,2,0,0,0,-1,0x820,-1,-1,-1,0 
1,3,494,0,0,17898,.BRA,17888,17890,4,0,0,0,0,0,100,0,7,0,-1,4,3,0,0,-1,0x840,-1,-1,-1,0 
1,3,493,0,0,17899,.FCHK,17888,17889,4,2,0,0,0,0,5,0,1,0,-1,2,16,0,0,-1,0x830,-1,-1,-1,0 
1,3,495,0,0,17899,.BMOV.32.CLEAR,17890,17891,4,0,1,0,0,0,100,0,7,0,-1,4,3,0,0,-1,0x910,-1,-1,-1,0 
1,3,496,0,0,17900,.BSSY,17890,17892,4,0,0,0,0,0,100,0,7,0,-1,4,3,0,0,-1,0x920,-1,-1,-1,0 
1,3,497,0,0,17908,.IMAD.MOV.U32,17892,17899,4,3,1,0,0,0,6,0,3,0,-1,2,3,0,0,-1,0x930,-1,-1,-1,0 
1,3,498,0,0,17908,.MOV,17892,17900,4,0,1,0,0,0,1,0,3,0,-1,2,3,0,0,-1,0x940,-1,-1,-1,0 
1,3,499,0,0,17910,.IMAD.MOV.U32,17900,17901,4,2,1,0,0,0,6,0,3,0,-1,2,3,0,0,-1,0x950,-1,-1,-1,0 
1,3,500,0,0,17910,.CALL.REL.NOINC,17900,17902,4,0,0,0,0,0,100,0,7,0,-1,4,3,0,0,-1,0x960,-1,-1,-1,0 
1,3,501,0,0,17913,.SHFL.IDX,17902,17903,4,4,0,0,0,0,1,0,3,0,-1,2,0,0,0,-1,0x9b0,-1,-1,-1,0 
1,3,502,0,0,17919,.SHF.R.U32.HI,17902,17910,4,2,1,0,0,0,6,0,3,0,-1,2,3,0,0,-1,0x9c0,-1,-1,-1,0 
1,3,503,0,0,17919,.BMOV.32.CLEAR,17910,17911,4,0,1,0,0,0,100,0,7,0,-1,4,3,0,0,-1,0x9d0,-1,-1,-1,0 
1,3,504,0,0,17928,.SHF.R.U32.HI,17910,17919,4,2,1,0,0,0,6,0,3,0,-1,2,3,0,0,-1,0x9e0,-1,-1,-1,0 
1,3,505,0,0,17928,.BSSY,17919,17920,4,0,0,0,0,0,100,0,7,0,-1,4,3,0,0,-1,0x9f0,-1,-1,-1,0 
1,3,506,0,0,17930,.LOP3.LUT,17919,17921,4,2,1,0,0,0,6,0,3,0,-1,2,3,0,0,-1,0xa00,-1,-1,-1,0 
1,3,507,0,0,17931,.IMAD.MOV.U32,17921,17922,4,2,1,0,0,0,6,0,3,0,-1,2,3,0,0,-1,0xa10,-1,-1,-1,0 
1,3,508,0,0,17937,.LOP3.LUT,17921,17928,4,2,1,0,0,0,6,0,3,0,-1,2,3,0,0,-1,0xa20,-1,-1,-1,0 
1,3,509,0,0,17939,.IADD3,17928,17930,4,2,1,0,0,0,6,0,3,0,-1,2,3,0,0,-1,0xa30,-1,-1,-1,0 
1,3,510,0,0,17946,.IADD3,17928,17937,4,2,1,0,0,0,6,0,3,0,-1,2,3,0,0,-1,0xa40,-1,-1,-1,0 
1,3,511,0,0,17948,.ISETP.GT.U32.AND,17937,17939,4,1,0,0,0,0,6,0,3,0,-1,2,3,0,0,-1,0xa50,-1,-1,-1,0 
1,3,512,0,0,17955,.ISETP.GT.U32.OR,17937,17946,4,1,0,0,0,0,6,0,3,0,-1,2,3,0,0,-1,0xa60,-1,-1,-1,0 
1,3,514,0,0,17956,.BRA,17946,17948,4,0,0,0,0,0,100,0,7,0,-1,4,0,0,0,-1,0xa80,-1,-1,-1,0 
1,3,513,0,0,17957,.IMAD.MOV.U32,17946,17947,4,3,1,0,0,0,6,0,3,0,-1,2,0,0,0,-1,0xa70,-1,-1,-1,0 
1,3,515,0,0,17958,.IMAD.MOV.U32,17948,17949,4,2,1,0,0,0,6,0,3,0,-1,2,3,0,0,-1,0xa90,-1,-1,-1,0 
1,3,516,0,0,17959,.FSETP.GTU.FTZ.AND,17948,17950,4,1,0,0,0,0,5,0,1,0,-1,2,3,0,0,-1,0xaa0,-1,-1,-1,0 
1,3,517,0,0,17967,.FSETP.GTU.FTZ.AND,17950,17958,4,1,0,0,0,0,5,0,1,0,-1,2,3,0,0,-1,0xab0,-1,-1,-1,0 
1,3,518,0,0,17967,.PLOP3.LUT,17950,17959,4,0,0,0,0,0,1,0,3,0,-1,2,3,0,0,-1,0xac0,-1,-1,-1,0 
1,3,519,0,0,17968,.BREAK,17959,17960,4,0,0,0,0,0,100,0,7,0,-1,4,0,0,0,-1,0xad0,-1,-1,-1,0 
1,3,520,0,0,17969,.BRA,17959,17961,4,0,0,0,0,0,100,0,7,0,-1,4,0,0,0,-1,0xae0,-1,-1,-1,0 
1,3,521,0,0,17971,.LOP3.LUT,17961,17962,4,3,0,0,0,0,6,0,3,0,-1,2,3,0,0,-1,0xaf0,-1,-1,-1,0 
1,3,522,0,0,17971,.BREAK,17961,17963,4,0,0,0,0,0,100,0,7,0,-1,4,0,0,0,-1,0xb00,-1,-1,-1,0 
1,3,523,0,0,17972,.BRA,17963,17964,4,0,0,0,0,0,100,0,7,0,-1,4,0,0,0,-1,0xb10,-1,-1,-1,0 
1,3,524,0,0,17974,.FSETP.NEU.FTZ.AND,17963,17965,4,1,0,0,0,0,5,0,1,0,-1,2,3,0,0,-1,0xb20,-1,-1,-1,0 
1,3,525,0,0,17975,.FSETP.NEU.FTZ.AND,17965,17966,4,1,0,0,0,0,5,0,1,0,-1,2,3,0,0,-1,0xb30,-1,-1,-1,0 
1,3,526,0,0,17976,.FSETP.NEU.FTZ.AND,17965,17967,4,1,0,0,0,0,5,0,1,0,-1,2,3,0,0,-1,0xb40,-1,-1,-1,0 
1,3,527,0,0,17976,.BREAK,17967,17968,4,0,0,0,0,0,100,0,7,0,-1,4,0,0,0,-1,0xb50,-1,-1,-1,0 
1,3,528,0,0,17977,.BRA,17967,17969,4,0,0,0,0,0,100,0,7,0,-1,4,0,0,0,-1,0xb60,-1,-1,-1,0 
1,3,529,0,0,17979,.LOP3.LUT,17969,17970,4,3,0,0,0,0,6,0,3,0,-1,2,3,0,0,-1,0xb70,-1,-1,-1,0 
1,3,530,0,0,17979,.PLOP3.LUT,17969,17971,4,0,0,0,0,0,1,0,3,0,-1,2,3,0,0,-1,0xb80,-1,-1,-1,0 
1,3,531,0,0,17980,.BREAK,17971,17972,4,0,0,0,0,0,100,0,7,0,-1,4,3,0,0,-1,0xb90,-1,-1,-1,0 
1,3,532,0,0,17981,.BRA,17971,17973,4,0,0,0,0,0,100,0,7,0,-1,4,3,0,0,-1,0xba0,-1,-1,-1,0 
1,3,533,0,0,17983,.IMAD.MOV.U32,17973,17974,4,2,1,0,0,0,6,0,3,0,-1,2,3,0,0,-1,0x10c0,-1,-1,-1,0 
1,3,534,0,0,17984,.LOP3.LUT,17973,17975,4,2,1,0,0,0,6,0,3,0,-1,2,3,0,0,-1,0x10d0,-1,-1,-1,0 
1,3,535,0,0,17984,.RET.REL.NODEC,17975,17976,4,0,1,0,0,0,100,0,7,0,-1,4,3,0,0,-1,0x10e0,-1,-1,-1,0 
1,3,536,0,0,17985,.BSYNC,17975,17977,4,0,0,0,0,0,100,0,7,0,-1,4,3,0,0,-1,0x970,-1,-1,-1,0 
1,3,537,0,0,17993,.IMAD.MOV.U32,17977,17984,4,3,1,0,0,0,6,0,3,0,-1,2,3,0,0,-1,0x980,-1,-1,-1,0 
1,3,538,0,0,17993,.MOV,17977,17985,4,0,1,0,0,0,1,0,3,0,-1,2,3,0,0,-1,0x990,-1,-1,-1,0 
1,3,539,0,0,17994,.RET.REL.NODEC,17985,17986,4,0,1,0,0,0,100,0,7,0,-1,4,3,0,0,-1,0x9a0,-1,-1,-1,0 
1,3,540,0,0,17995,.BSYNC,17985,17987,4,0,0,0,0,0,100,0,7,0,-1,4,3,0,0,-1,0x4e0,-1,-1,-1,0 
1,3,541,0,0,18002,.IMAD.MOV.U32,17987,17993,4,2,1,0,0,0,6,0,3,0,-1,2,13,0,0,-1,0x850,-1,-1,-1,0 
1,3,542,0,0,18011,.FADD.FTZ,17987,18002,4,2,1,0,0,0,5,0,1,0,-1,2,13,0,0,-1,0x860,-1,-1,-1,0 
1,3,544,0,0,18013,.IMAD.MOV.U32,18002,18004,4,2,1,0,0,0,6,0,3,0,-1,2,13,0,0,-1,0x880,-1,-1,-1,0 
1,3,543,0,0,18028,.MUFU.RCP,18002,18003,20,1,1,0,0,0,2,0,4,0,-1,8,13,0,0,-1,0x870,-1,-1,-1,0 
1,3,545,0,0,18037,.FFMA,18004,18028,4,2,1,0,0,0,5,0,1,0,-1,2,13,0,0,-1,0x890,-1,-1,-1,0 
1,3,546,0,0,18046,.FFMA,18004,18037,4,3,1,0,0,0,5,0,1,0,-1,2,13,0,0,-1,0x8a0,-1,-1,-1,0 
1,3,547,0,0,18055,.FFMA,18037,18046,4,3,1,0,0,0,5,0,1,0,-1,2,13,0,0,-1,0x8b0,-1,-1,-1,0 
1,3,548,0,0,18064,.FFMA,18037,18055,4,3,1,0,0,0,5,0,1,0,-1,2,13,0,0,-1,0x8c0,-1,-1,-1,0 
1,3,549,0,0,18073,.FFMA,18055,18064,4,3,1,0,0,0,5,0,1,0,-1,2,13,0,0,-1,0x8d0,-1,-1,-1,0 
1,3,550,0,0,18082,.FFMA,18055,18073,4,3,1,0,0,0,5,0,1,0,-1,2,13,0,0,-1,0x8e0,-1,-1,-1,0 
1,3,551,0,0,18091,.FFMA,18073,18082,4,3,1,0,0,0,5,0,1,0,-1,2,13,0,0,-1,0x8f0,-1,-1,-1,0 
1,3,552,0,0,18091,.RET.REL.NODEC,18073,18083,4,0,1,0,0,0,100,0,7,0,-1,4,13,0,0,-1,0x900,-1,-1,-1,0 
1,3,553,0,0,18092,.BSYNC,18083,18084,4,0,0,0,0,0,100,0,7,0,-1,4,13,0,0,-1,0x4e0,-1,-1,-1,0 
1,3,554,0,0,18100,.FADD,18083,18091,4,2,1,0,0,0,5,0,1,0,-1,2,16,0,0,-1,0x4f0,-1,-1,-1,0 
1,3,555,0,0,18100,.BMOV.32.CLEAR,18091,18092,4,0,1,0,0,0,100,0,7,0,-1,4,16,0,0,-1,0x500,-1,-1,-1,0 
1,3,556,0,0,18102,.FADD,18091,18093,4,1,1,0,0,0,5,0,1,0,-1,2,16,0,0,-1,0x510,-1,-1,-1,0 
1,3,557,0,0,18102,.BSSY,18093,18094,4,0,0,0,0,0,100,0,7,0,-1,4,16,0,0,-1,0x520,-1,-1,-1,0 
1,3,558,0,0,18109,.FADD,18093,18100,4,1,1,0,0,0,5,0,1,0,-1,2,16,0,0,-1,0x530,-1,-1,-1,0 
1,3,559,0,0,18118,.FMUL,18100,18109,4,2,1,0,0,0,5,0,1,0,-1,2,16,0,0,-1,0x540,-1,-1,-1,0 
1,3,560,0,0,18127,.FFMA,18100,18118,4,3,1,0,0,0,5,0,1,0,-1,2,16,0,0,-1,0x550,-1,-1,-1,0 
1,3,561,0,0,18136,.IADD3,18118,18127,4,2,1,0,0,0,6,0,3,0,-1,2,16,0,0,-1,0x560,-1,-1,-1,0 
1,3,562,0,0,18145,.ISETP.GT.U32.AND,18118,18136,4,1,0,0,0,0,6,0,3,0,-1,2,16,0,0,-1,0x570,-1,-1,-1,0 
1,3,563,0,0,18145,.BRA,18136,18137,4,0,0,0,0,0,100,0,7,0,-1,4,16,0,0,-1,0x580,-1,-1,-1,0 
1,3,564,0,0,18163,.MUFU.RSQ,18136,18138,20,1,1,0,0,0,2,0,4,0,-1,8,16,0,0,-1,0x5f0,-1,-1,-1,0 
1,3,565,0,0,18172,.FMUL.FTZ,18138,18163,4,2,1,0,0,0,5,0,1,0,-1,2,16,0,0,-1,0x600,-1,-1,-1,0 
1,3,566,0,0,18173,.FMUL.FTZ,18138,18164,4,1,1,0,0,0,5,0,1,0,-1,2,16,0,0,-1,0x610,-1,-1,-1,0 
1,3,567,0,0,18181,.FADD.FTZ,18164,18172,4,2,1,0,0,0,5,0,1,0,-1,2,16,0,0,-1,0x620,-1,-1,-1,0 
1,3,568,0,0,18190,.FFMA,18164,18181,4,3,1,0,0,0,5,0,1,0,-1,2,16,0,0,-1,0x630,-1,-1,-1,0 
1,3,569,0,0,18199,.FFMA,18181,18190,4,3,1,0,0,0,5,0,1,0,-1,2,16,0,0,-1,0x640,-1,-1,-1,0 
1,3,570,0,0,18199,.BSYNC,18181,18191,4,0,0,0,0,0,100,0,7,0,-1,4,16,0,0,-1,0x650,-1,-1,-1,0 
1,3,571,0,0,18201,.IMAD.MOV.U32,18191,18192,4,2,1,0,0,0,6,0,3,0,-1,2,16,0,0,-1,0x660,-1,-1,-1,0 
1,3,572,0,0,18210,.IMAD.WIDE,18191,18201,4,2,1,0,0,0,6,0,3,0,-1,2,16,0,0,-1,0x670,-1,-1,-1,0 
1,3,573,0,0,18214,.STG.E.SYS,18201,18210,1,2,0,0,1,4,11,0,6,0,-1,1,16,0,0,-1,0x680,-1,-1,-1,1 
1,3,574,0,0,18216,.EXIT,18201,18211,1,0,0,0,0,0,17,0,3,0,-1,1,16,0,0,-1,0x690,-1,-1,-1,0 
Destroy streams for kernel 3: size 0


gpgpu_simulation_time = 0 days, 0 hrs, 0 min, 1 sec (1 sec)
gpgpu_simulation_rate = 5945 (inst/sec)
gpgpu_simulation_rate = 18402 (cycle/sec)
gpgpu_silicon_slowdown = 61515x
launching memcpy command : MemcpyHtoD,0x00007fb125700000,735000
-kernel name = _Z6euclidPcffPfiii
-kernel id = 4
-grid dim = (938,1,1)
-block dim = (16,1,1)
-shmem = 0
-nregs = 21
-binary version = 70
-cuda stream id = 0
-shmem base_addr = 0x00007fb15c000000
-local mem base_addr = 0x00007fb15e000000
-nvbit version = 1.4
-accelsim tracer version = 3
launching kernel command : /scratch/santosh/gpu_simulation/accel-sim-framework/traces/rodinia_2.0-ft/11.0/nn-rodinia-2.0-ft/__data_filelist_4_3_30_90___data_filelist_4_3_30_90_result_txt/traces/kernel-4.traceg
GPGPU-Sim uArch: Shader 0 bind to kernel 4 '_Z6euclidPcffPfiii'
GPGPU-Sim: Reconfigure L1 cache to 128KB
GPGPUsim: cta_size: 16
ctaid: 0, start warp: 0, end_warp: 1, start_thread: 0, end_thread: 16
thread block = 0,0,0
warp id: 0
warp_id: 0, insts: 222
1,4,575,0,0,23413,.IMAD.MOV.U32,23403,23404,4,2,1,0,0,0,6,0,3,0,-1,2,16,0,0,-1,0,-1,-1,-1,0 
1,4,577,0,0,23414,.S2R,23405,23406,4,0,1,0,0,0,1,0,3,0,-1,2,16,0,0,-1,0x20,-1,-1,-1,0 
1,4,576,0,0,23415,.SHFL.IDX,23403,23405,4,4,0,0,0,0,1,0,3,0,-1,2,0,0,0,-1,0x10,-1,-1,-1,0 
1,4,578,0,0,23415,.S2R,23405,23407,4,0,1,0,0,0,1,0,3,0,-1,2,16,0,0,-1,0x30,-1,-1,-1,0 
1,4,579,0,0,23424,.IMAD,23407,23415,4,2,1,0,0,0,6,0,3,0,-1,2,16,0,0,-1,0x40,-1,-1,-1,0 
1,4,581,0,0,23430,.EXIT,23424,23425,1,0,0,0,0,0,17,0,3,0,-1,1,0,0,0,-1,0x60,-1,-1,-1,0 
1,4,580,0,0,23433,.ISETP.GE.AND,23407,23424,4,1,0,0,0,0,6,0,3,0,-1,2,16,0,0,-1,0x50,-1,-1,-1,0 
1,4,582,0,0,23435,.IMAD.MOV.U32,23424,23426,4,2,1,0,0,0,6,0,3,0,-1,2,16,0,0,-1,0x70,-1,-1,-1,0 
1,4,583,0,0,23444,.IMAD,23426,23435,4,2,1,0,0,0,6,0,3,0,-1,2,16,0,0,-1,0x80,-1,-1,-1,0 
1,4,584,0,0,23453,.IADD3,23426,23444,4,2,1,0,0,0,6,0,3,0,-1,2,16,0,0,-1,0x90,-1,-1,-1,0 
1,4,585,0,0,23454,.LEA.HI.X.SX32,23444,23445,4,1,1,0,0,0,6,0,3,0,-1,2,16,0,0,-1,0xa0,-1,-1,-1,0 
1,4,594,0,0,23469,.BMOV.32.CLEAR,23459,23461,4,0,1,0,0,0,100,0,7,0,-1,4,16,0,0,-1,0x130,-1,-1,-1,0 
1,4,595,0,0,23470,.BSSY,23461,23462,4,0,0,0,0,0,100,0,7,0,-1,4,16,0,0,-1,0x140,-1,-1,-1,0 
1,4,586,0,0,23746,.LDG.E.U8.SYS,23444,23453,1,1,1,1,0,1,8,0,6,0,-1,1,16,0,0,-1,0xb0,-1,-1,-1,1 
1,4,587,0,0,23750,.LDG.E.U8.SYS,23453,23454,1,1,1,1,0,1,8,0,6,0,-1,1,16,0,0,-1,0xc0,-1,-1,-1,1 
1,4,588,0,0,23751,.LDG.E.U8.SYS,23453,23455,1,1,1,1,0,1,8,0,6,0,-1,1,16,0,0,-1,0xd0,-1,-1,-1,1 
1,4,596,0,0,23755,.PRMT,23461,23746,4,2,1,0,0,0,1,0,3,0,-1,2,16,0,0,-1,0x150,-1,-1,-1,0 
1,4,597,0,0,23760,.PRMT,23746,23750,4,2,1,0,0,0,1,0,3,0,-1,2,16,0,0,-1,0x160,-1,-1,-1,0 
1,4,590,0,0,23762,.LDG.E.U8.SYS,23455,23457,1,1,1,1,0,1,8,0,6,0,-1,1,16,0,0,-1,0xf0,-1,-1,-1,1 
1,4,598,0,0,23764,.ISETP.NE.AND,23746,23755,4,1,0,0,0,0,6,0,3,0,-1,2,16,0,0,-1,0x170,-1,-1,-1,0 
1,4,599,0,0,23765,.PRMT,23755,23756,4,2,1,0,0,0,1,0,3,0,-1,2,16,0,0,-1,0x180,-1,-1,-1,0 
1,4,589,0,0,23767,.LDG.E.U8.SYS,23455,23456,1,1,1,1,0,1,8,0,6,0,-1,1,16,0,0,-1,0xe0,-1,-1,-1,1 
1,4,591,0,0,23768,.LDG.E.U8.SYS,23457,23458,1,1,1,1,0,1,8,0,6,0,-1,1,16,0,0,-1,0x100,-1,-1,-1,1 
1,4,600,0,0,23769,.ISETP.NE.AND,23755,23760,4,1,0,0,0,0,6,0,3,0,-1,2,16,0,0,-1,0x190,-1,-1,-1,0 
1,4,592,0,0,23771,.LDG.E.U8.SYS,23457,23459,1,1,1,1,0,1,8,0,6,0,-1,1,16,0,0,-1,0x110,-1,-1,-1,1 
1,4,593,0,0,23773,.LDG.E.U8.SYS,23459,23460,1,1,1,1,0,1,8,0,6,0,-1,1,16,0,0,-1,0x120,-1,-1,-1,1 
1,4,601,0,0,23777,.PRMT,23760,23767,4,2,1,0,0,0,1,0,3,0,-1,2,16,0,0,-1,0x1a0,-1,-1,-1,0 
1,4,602,0,0,23777,.ISETP.NE.AND,23760,23768,4,1,0,0,0,0,6,0,3,0,-1,2,16,0,0,-1,0x1b0,-1,-1,-1,0 
1,4,603,0,0,23786,.ISETP.NE.AND,23768,23777,4,1,0,0,0,0,6,0,3,0,-1,2,16,0,0,-1,0x1c0,-1,-1,-1,0 
1,4,604,0,0,23787,.PRMT,23768,23778,4,2,1,0,0,0,1,0,3,0,-1,2,0,0,0,-1,0x1d0,-1,-1,-1,0 
1,4,605,0,0,23788,.IMAD.MOV.U32,23778,23779,4,2,1,0,0,0,6,0,3,0,-1,2,0,0,0,-1,0x1e0,-1,-1,-1,0 
1,4,606,0,0,23789,.PRMT,23778,23780,4,2,1,0,0,0,1,0,3,0,-1,2,16,0,0,-1,0x1f0,-1,-1,-1,0 
1,4,607,0,0,23790,.IMAD.MOV.U32,23780,23781,4,2,1,0,0,0,6,0,3,0,-1,2,16,0,0,-1,0x200,-1,-1,-1,0 
1,4,608,0,0,23797,.IMAD,23780,23788,4,2,1,0,0,0,6,0,3,0,-1,2,0,0,0,-1,0x210,-1,-1,-1,0 
1,4,609,0,0,23798,.PRMT,23788,23789,4,2,1,0,0,0,1,0,3,0,-1,2,16,0,0,-1,0x220,-1,-1,-1,0 
1,4,610,0,0,23799,.IMAD,23788,23790,4,2,1,0,0,0,6,0,3,0,-1,2,16,0,0,-1,0x230,-1,-1,-1,0 
1,4,611,0,0,23800,.PRMT,23790,23791,4,2,1,0,0,0,1,0,3,0,-1,2,11,0,0,-1,0x240,-1,-1,-1,0 
1,4,612,0,0,23802,.IMAD.MOV.U32,23790,23792,4,3,1,0,0,0,6,0,3,0,-1,2,16,0,0,-1,0x250,-1,-1,-1,0 
1,4,613,0,0,23807,.IMAD.MOV.U32,23792,23798,4,3,1,0,0,0,6,0,3,0,-1,2,16,0,0,-1,0x260,-1,-1,-1,0 
1,4,614,0,0,23809,.IMAD.MOV.U32,23792,23800,4,3,1,0,0,0,6,0,3,0,-1,2,11,0,0,-1,0x270,-1,-1,-1,0 
1,4,615,0,0,23810,.PRMT,23800,23801,4,2,1,0,0,0,1,0,3,0,-1,2,16,0,0,-1,0x280,-1,-1,-1,0 
1,4,616,0,0,23811,.IMAD.MOV.U32,23800,23802,4,2,1,0,0,0,6,0,3,0,-1,2,11,0,0,-1,0x290,-1,-1,-1,0 
1,4,617,0,0,23816,.IADD3,23802,23807,4,2,1,0,0,0,6,0,3,0,-1,2,16,0,0,-1,0x2a0,-1,-1,-1,0 
1,4,618,0,0,23817,.I2F,23802,23808,4,1,1,0,0,0,1,0,3,0,-1,2,0,0,0,-1,0x2b0,-1,-1,-1,0 
1,4,619,0,0,23818,.I2F,23808,23809,4,1,1,0,0,0,1,0,3,0,-1,2,16,0,0,-1,0x2c0,-1,-1,-1,0 
1,4,620,0,0,23820,.IMAD,23808,23811,4,2,1,0,0,0,6,0,3,0,-1,2,11,0,0,-1,0x2d0,-1,-1,-1,0 
1,4,621,0,0,23821,.IADD3,23811,23812,4,2,1,0,0,0,6,0,3,0,-1,2,16,0,0,-1,0x2e0,-1,-1,-1,0 
1,4,622,0,0,23823,.IMAD.MOV.U32,23811,23813,4,3,1,0,0,0,6,0,3,0,-1,2,16,0,0,-1,0x2f0,-1,-1,-1,0 
1,4,623,0,0,23825,.I2F,23813,23816,4,1,1,0,0,0,1,0,3,0,-1,2,16,0,0,-1,0x300,-1,-1,-1,0 
1,4,624,0,0,23826,.PRMT,23813,23817,4,2,1,0,0,0,1,0,3,0,-1,2,16,0,0,-1,0x310,-1,-1,-1,0 
1,4,625,0,0,23830,.I2F,23817,23821,4,1,1,0,0,0,1,0,3,0,-1,2,16,0,0,-1,0x320,-1,-1,-1,0 
1,4,626,0,0,23832,.I2F,23817,23823,4,1,1,0,0,0,1,0,3,0,-1,2,11,0,0,-1,0x330,-1,-1,-1,0 
1,4,627,0,0,23833,.FADD,23823,23824,4,2,1,0,0,0,5,0,1,0,-1,2,16,0,0,-1,0x340,-1,-1,-1,0 
1,4,628,0,0,23835,.ISETP.NE.AND,23823,23826,4,1,0,0,0,0,6,0,3,0,-1,2,16,0,0,-1,0x350,-1,-1,-1,0 
1,4,629,0,0,23836,.IMAD.MOV.U32,23826,23827,4,2,1,0,0,0,6,0,3,0,-1,2,16,0,0,-1,0x360,-1,-1,-1,0 
1,4,630,0,0,23836,.MOV,23826,23828,4,0,1,0,0,0,1,0,3,0,-1,2,16,0,0,-1,0x370,-1,-1,-1,0 
1,4,631,0,0,23842,.FADD,23828,23833,4,2,1,0,0,0,5,0,1,0,-1,2,16,0,0,-1,0x380,-1,-1,-1,0 
1,4,632,0,0,23842,.CALL.REL.NOINC,23828,23834,4,0,0,0,0,0,100,0,7,0,-1,4,16,0,0,-1,0x390,-1,-1,-1,0 
1,4,633,0,0,23845,.SHFL.IDX,23834,23835,4,4,0,0,0,0,1,0,3,0,-1,2,0,0,0,-1,0x820,-1,-1,-1,0 
1,4,635,0,0,23845,.BRA,23836,23837,4,0,0,0,0,0,100,0,7,0,-1,4,1,0,0,-1,0x840,-1,-1,-1,0 
1,4,634,0,0,23846,.FCHK,23834,23836,4,2,0,0,0,0,5,0,1,0,-1,2,16,0,0,-1,0x830,-1,-1,-1,0 
1,4,636,0,0,23846,.BMOV.32.CLEAR,23836,23838,4,0,1,0,0,0,100,0,7,0,-1,4,1,0,0,-1,0x910,-1,-1,-1,0 
1,4,637,0,0,23847,.BSSY,23838,23839,4,0,0,0,0,0,100,0,7,0,-1,4,1,0,0,-1,0x920,-1,-1,-1,0 
1,4,638,0,0,23855,.IMAD.MOV.U32,23838,23846,4,3,1,0,0,0,6,0,3,0,-1,2,1,0,0,-1,0x930,-1,-1,-1,0 
1,4,639,0,0,23855,.MOV,23846,23847,4,0,1,0,0,0,1,0,3,0,-1,2,1,0,0,-1,0x940,-1,-1,-1,0 
1,4,640,0,0,23857,.IMAD.MOV.U32,23846,23848,4,2,1,0,0,0,6,0,3,0,-1,2,1,0,0,-1,0x950,-1,-1,-1,0 
1,4,641,0,0,23857,.CALL.REL.NOINC,23848,23849,4,0,0,0,0,0,100,0,7,0,-1,4,1,0,0,-1,0x960,-1,-1,-1,0 
1,4,642,0,0,23860,.SHFL.IDX,23848,23850,4,4,0,0,0,0,1,0,3,0,-1,2,0,0,0,-1,0x9b0,-1,-1,-1,0 
1,4,643,0,0,23866,.SHF.R.U32.HI,23850,23857,4,2,1,0,0,0,6,0,3,0,-1,2,1,0,0,-1,0x9c0,-1,-1,-1,0 
1,4,644,0,0,23866,.BMOV.32.CLEAR,23850,23858,4,0,1,0,0,0,100,0,7,0,-1,4,1,0,0,-1,0x9d0,-1,-1,-1,0 
1,4,645,0,0,23875,.SHF.R.U32.HI,23858,23866,4,2,1,0,0,0,6,0,3,0,-1,2,1,0,0,-1,0x9e0,-1,-1,-1,0 
1,4,646,0,0,23875,.BSSY,23858,23867,4,0,0,0,0,0,100,0,7,0,-1,4,1,0,0,-1,0x9f0,-1,-1,-1,0 
1,4,647,0,0,23877,.LOP3.LUT,23867,23868,4,2,1,0,0,0,6,0,3,0,-1,2,1,0,0,-1,0xa00,-1,-1,-1,0 
1,4,648,0,0,23878,.IMAD.MOV.U32,23867,23869,4,2,1,0,0,0,6,0,3,0,-1,2,1,0,0,-1,0xa10,-1,-1,-1,0 
1,4,649,0,0,23884,.LOP3.LUT,23869,23875,4,2,1,0,0,0,6,0,3,0,-1,2,1,0,0,-1,0xa20,-1,-1,-1,0 
1,4,650,0,0,23886,.IADD3,23869,23877,4,2,1,0,0,0,6,0,3,0,-1,2,1,0,0,-1,0xa30,-1,-1,-1,0 
1,4,651,0,0,23893,.IADD3,23877,23884,4,2,1,0,0,0,6,0,3,0,-1,2,1,0,0,-1,0xa40,-1,-1,-1,0 
1,4,652,0,0,23895,.ISETP.GT.U32.AND,23877,23886,4,1,0,0,0,0,6,0,3,0,-1,2,1,0,0,-1,0xa50,-1,-1,-1,0 
1,4,653,0,0,23902,.ISETP.GT.U32.OR,23886,23893,4,1,0,0,0,0,6,0,3,0,-1,2,1,0,0,-1,0xa60,-1,-1,-1,0 
1,4,655,0,0,23903,.BRA,23894,23895,4,0,0,0,0,0,100,0,7,0,-1,4,0,0,0,-1,0xa80,-1,-1,-1,0 
1,4,654,0,0,23904,.IMAD.MOV.U32,23886,23894,4,3,1,0,0,0,6,0,3,0,-1,2,0,0,0,-1,0xa70,-1,-1,-1,0 
1,4,656,0,0,23905,.IMAD.MOV.U32,23894,23896,4,2,1,0,0,0,6,0,3,0,-1,2,1,0,0,-1,0xa90,-1,-1,-1,0 
1,4,657,0,0,23906,.FSETP.GTU.FTZ.AND,23896,23897,4,1,0,0,0,0,5,0,1,0,-1,2,1,0,0,-1,0xaa0,-1,-1,-1,0 
1,4,658,0,0,23914,.FSETP.GTU.FTZ.AND,23896,23905,4,1,0,0,0,0,5,0,1,0,-1,2,1,0,0,-1,0xab0,-1,-1,-1,0 
1,4,659,0,0,23914,.PLOP3.LUT,23905,23906,4,0,0,0,0,0,1,0,3,0,-1,2,1,0,0,-1,0xac0,-1,-1,-1,0 
1,4,660,0,0,23915,.BREAK,23905,23907,4,0,0,0,0,0,100,0,7,0,-1,4,0,0,0,-1,0xad0,-1,-1,-1,0 
1,4,661,0,0,23916,.BRA,23907,23908,4,0,0,0,0,0,100,0,7,0,-1,4,0,0,0,-1,0xae0,-1,-1,-1,0 
1,4,662,0,0,23918,.LOP3.LUT,23907,23909,4,3,0,0,0,0,6,0,3,0,-1,2,1,0,0,-1,0xaf0,-1,-1,-1,0 
1,4,663,0,0,23918,.BREAK,23909,23910,4,0,0,0,0,0,100,0,7,0,-1,4,0,0,0,-1,0xb00,-1,-1,-1,0 
1,4,664,0,0,23919,.BRA,23909,23911,4,0,0,0,0,0,100,0,7,0,-1,4,0,0,0,-1,0xb10,-1,-1,-1,0 
1,4,665,0,0,23921,.FSETP.NEU.FTZ.AND,23911,23912,4,1,0,0,0,0,5,0,1,0,-1,2,1,0,0,-1,0xb20,-1,-1,-1,0 
1,4,666,0,0,23922,.FSETP.NEU.FTZ.AND,23911,23913,4,1,0,0,0,0,5,0,1,0,-1,2,1,0,0,-1,0xb30,-1,-1,-1,0 
1,4,667,0,0,23923,.FSETP.NEU.FTZ.AND,23913,23914,4,1,0,0,0,0,5,0,1,0,-1,2,1,0,0,-1,0xb40,-1,-1,-1,0 
1,4,668,0,0,23923,.BREAK,23913,23915,4,0,0,0,0,0,100,0,7,0,-1,4,0,0,0,-1,0xb50,-1,-1,-1,0 
1,4,669,0,0,23924,.BRA,23915,23916,4,0,0,0,0,0,100,0,7,0,-1,4,0,0,0,-1,0xb60,-1,-1,-1,0 
1,4,670,0,0,23926,.LOP3.LUT,23915,23917,4,3,0,0,0,0,6,0,3,0,-1,2,1,0,0,-1,0xb70,-1,-1,-1,0 
1,4,671,0,0,23926,.PLOP3.LUT,23917,23918,4,0,0,0,0,0,1,0,3,0,-1,2,1,0,0,-1,0xb80,-1,-1,-1,0 
1,4,672,0,0,23927,.BREAK,23917,23919,4,0,0,0,0,0,100,0,7,0,-1,4,1,0,0,-1,0xb90,-1,-1,-1,0 
1,4,673,0,0,23928,.BRA,23919,23920,4,0,0,0,0,0,100,0,7,0,-1,4,1,0,0,-1,0xba0,-1,-1,-1,0 
1,4,674,0,0,23930,.IMAD.MOV.U32,23919,23921,4,2,1,0,0,0,6,0,3,0,-1,2,1,0,0,-1,0x10c0,-1,-1,-1,0 
1,4,675,0,0,23931,.LOP3.LUT,23921,23922,4,2,1,0,0,0,6,0,3,0,-1,2,1,0,0,-1,0x10d0,-1,-1,-1,0 
1,4,676,0,0,23931,.RET.REL.NODEC,23921,23923,4,0,1,0,0,0,100,0,7,0,-1,4,1,0,0,-1,0x10e0,-1,-1,-1,0 
1,4,677,0,0,23932,.BSYNC,23923,23924,4,0,0,0,0,0,100,0,7,0,-1,4,1,0,0,-1,0x970,-1,-1,-1,0 
1,4,678,0,0,23940,.IMAD.MOV.U32,23923,23931,4,3,1,0,0,0,6,0,3,0,-1,2,1,0,0,-1,0x980,-1,-1,-1,0 
1,4,679,0,0,23940,.MOV,23931,23932,4,0,1,0,0,0,1,0,3,0,-1,2,1,0,0,-1,0x990,-1,-1,-1,0 
1,4,680,0,0,23941,.RET.REL.NODEC,23931,23933,4,0,1,0,0,0,100,0,7,0,-1,4,1,0,0,-1,0x9a0,-1,-1,-1,0 
1,4,681,0,0,23942,.BSYNC,23933,23934,4,0,0,0,0,0,100,0,7,0,-1,4,1,0,0,-1,0x3a0,-1,-1,-1,0 
1,4,682,0,0,23949,.IMAD.MOV.U32,23933,23940,4,2,1,0,0,0,6,0,3,0,-1,2,15,0,0,-1,0x850,-1,-1,-1,0 
1,4,683,0,0,23958,.FADD.FTZ,23940,23949,4,2,1,0,0,0,5,0,1,0,-1,2,15,0,0,-1,0x860,-1,-1,-1,0 
1,4,685,0,0,23960,.IMAD.MOV.U32,23950,23951,4,2,1,0,0,0,6,0,3,0,-1,2,15,0,0,-1,0x880,-1,-1,-1,0 
1,4,684,0,0,23975,.MUFU.RCP,23940,23950,20,1,1,0,0,0,2,0,4,0,-1,8,15,0,0,-1,0x870,-1,-1,-1,0 
1,4,686,0,0,23984,.FFMA,23950,23975,4,2,1,0,0,0,5,0,1,0,-1,2,15,0,0,-1,0x890,-1,-1,-1,0 
1,4,687,0,0,23993,.FFMA,23975,23984,4,3,1,0,0,0,5,0,1,0,-1,2,15,0,0,-1,0x8a0,-1,-1,-1,0 
1,4,688,0,0,24002,.FFMA,23975,23993,4,3,1,0,0,0,5,0,1,0,-1,2,15,0,0,-1,0x8b0,-1,-1,-1,0 
1,4,689,0,0,24011,.FFMA,23993,24002,4,3,1,0,0,0,5,0,1,0,-1,2,15,0,0,-1,0x8c0,-1,-1,-1,0 
1,4,690,0,0,24020,.FFMA,23993,24011,4,3,1,0,0,0,5,0,1,0,-1,2,15,0,0,-1,0x8d0,-1,-1,-1,0 
1,4,691,0,0,24029,.FFMA,24011,24020,4,3,1,0,0,0,5,0,1,0,-1,2,15,0,0,-1,0x8e0,-1,-1,-1,0 
1,4,692,0,0,24038,.FFMA,24011,24029,4,3,1,0,0,0,5,0,1,0,-1,2,15,0,0,-1,0x8f0,-1,-1,-1,0 
1,4,693,0,0,24038,.RET.REL.NODEC,24029,24030,4,0,1,0,0,0,100,0,7,0,-1,4,15,0,0,-1,0x900,-1,-1,-1,0 
1,4,694,0,0,24039,.BSYNC,24029,24031,4,0,0,0,0,0,100,0,7,0,-1,4,15,0,0,-1,0x3a0,-1,-1,-1,0 
1,4,695,0,0,24047,.PRMT,24031,24038,4,2,1,0,0,0,1,0,3,0,-1,2,16,0,0,-1,0x3b0,-1,-1,-1,0 
1,4,696,0,0,24048,.IMAD.MOV.U32,24031,24039,4,2,1,0,0,0,6,0,3,0,-1,2,15,0,0,-1,0x3c0,-1,-1,-1,0 
1,4,697,0,0,24049,.PRMT,24039,24040,4,2,1,0,0,0,1,0,3,0,-1,2,15,0,0,-1,0x3d0,-1,-1,-1,0 
1,4,698,0,0,24049,.BMOV.32.CLEAR,24039,24041,4,0,1,0,0,0,100,0,7,0,-1,4,16,0,0,-1,0x3e0,-1,-1,-1,0 
1,4,699,0,0,24056,.ISETP.NE.AND,24041,24047,4,1,0,0,0,0,6,0,3,0,-1,2,16,0,0,-1,0x3f0,-1,-1,-1,0 
1,4,700,0,0,24056,.BSSY,24041,24048,4,0,0,0,0,0,100,0,7,0,-1,4,16,0,0,-1,0x400,-1,-1,-1,0 
1,4,701,0,0,24058,.PRMT,24048,24049,4,2,1,0,0,0,1,0,3,0,-1,2,16,0,0,-1,0x410,-1,-1,-1,0 
1,4,702,0,0,24059,.IMAD,24048,24050,4,2,1,0,0,0,6,0,3,0,-1,2,15,0,0,-1,0x420,-1,-1,-1,0 
1,4,703,0,0,24060,.FADD,24050,24051,4,2,1,0,0,0,5,0,1,0,-1,2,16,0,0,-1,0x430,-1,-1,-1,0 
1,4,704,0,0,24067,.IADD3,24050,24058,4,2,1,0,0,0,6,0,3,0,-1,2,16,0,0,-1,0x440,-1,-1,-1,0 
1,4,705,0,0,24067,.MOV,24058,24059,4,0,1,0,0,0,1,0,3,0,-1,2,16,0,0,-1,0x450,-1,-1,-1,0 
1,4,706,0,0,24069,.PRMT,24058,24060,4,2,1,0,0,0,1,0,3,0,-1,2,16,0,0,-1,0x460,-1,-1,-1,0 
1,4,707,0,0,24076,.I2F,24060,24067,4,1,1,0,0,0,1,0,3,0,-1,2,16,0,0,-1,0x470,-1,-1,-1,0 
1,4,708,0,0,24078,.IADD3,24060,24069,4,2,1,0,0,0,6,0,3,0,-1,2,16,0,0,-1,0x480,-1,-1,-1,0 
1,4,709,0,0,24079,.I2F,24069,24070,4,1,1,0,0,0,1,0,3,0,-1,2,15,0,0,-1,0x490,-1,-1,-1,0 
1,4,710,0,0,24087,.I2F,24069,24078,4,1,1,0,0,0,1,0,3,0,-1,2,16,0,0,-1,0x4a0,-1,-1,-1,0 
1,4,711,0,0,24088,.FADD,24078,24079,4,2,1,0,0,0,5,0,1,0,-1,2,15,0,0,-1,0x4b0,-1,-1,-1,0 
1,4,712,0,0,24097,.FADD,24078,24088,4,2,1,0,0,0,5,0,1,0,-1,2,16,0,0,-1,0x4c0,-1,-1,-1,0 
1,4,713,0,0,24097,.CALL.REL.NOINC,24088,24089,4,0,0,0,0,0,100,0,7,0,-1,4,16,0,0,-1,0x4d0,-1,-1,-1,0 
1,4,714,0,0,24100,.SHFL.IDX,24088,24090,4,4,0,0,0,0,1,0,3,0,-1,2,0,0,0,-1,0x820,-1,-1,-1,0 
1,4,716,0,0,24100,.BRA,24090,24092,4,0,0,0,0,0,100,0,7,0,-1,4,1,0,0,-1,0x840,-1,-1,-1,0 
1,4,715,0,0,24101,.FCHK,24090,24091,4,2,0,0,0,0,5,0,1,0,-1,2,16,0,0,-1,0x830,-1,-1,-1,0 
1,4,717,0,0,24101,.BMOV.32.CLEAR,24092,24093,4,0,1,0,0,0,100,0,7,0,-1,4,1,0,0,-1,0x910,-1,-1,-1,0 
1,4,718,0,0,24102,.BSSY,24092,24094,4,0,0,0,0,0,100,0,7,0,-1,4,1,0,0,-1,0x920,-1,-1,-1,0 
1,4,719,0,0,24110,.IMAD.MOV.U32,24094,24101,4,3,1,0,0,0,6,0,3,0,-1,2,1,0,0,-1,0x930,-1,-1,-1,0 
1,4,720,0,0,24110,.MOV,24094,24102,4,0,1,0,0,0,1,0,3,0,-1,2,1,0,0,-1,0x940,-1,-1,-1,0 
1,4,721,0,0,24112,.IMAD.MOV.U32,24102,24103,4,2,1,0,0,0,6,0,3,0,-1,2,1,0,0,-1,0x950,-1,-1,-1,0 
1,4,722,0,0,24112,.CALL.REL.NOINC,24102,24104,4,0,0,0,0,0,100,0,7,0,-1,4,1,0,0,-1,0x960,-1,-1,-1,0 
1,4,723,0,0,24115,.SHFL.IDX,24104,24105,4,4,0,0,0,0,1,0,3,0,-1,2,0,0,0,-1,0x9b0,-1,-1,-1,0 
1,4,724,0,0,24121,.SHF.R.U32.HI,24104,24112,4,2,1,0,0,0,6,0,3,0,-1,2,1,0,0,-1,0x9c0,-1,-1,-1,0 
1,4,725,0,0,24121,.BMOV.32.CLEAR,24112,24113,4,0,1,0,0,0,100,0,7,0,-1,4,1,0,0,-1,0x9d0,-1,-1,-1,0 
1,4,726,0,0,24130,.SHF.R.U32.HI,24112,24121,4,2,1,0,0,0,6,0,3,0,-1,2,1,0,0,-1,0x9e0,-1,-1,-1,0 
1,4,727,0,0,24130,.BSSY,24121,24122,4,0,0,0,0,0,100,0,7,0,-1,4,1,0,0,-1,0x9f0,-1,-1,-1,0 
1,4,728,0,0,24132,.LOP3.LUT,24121,24123,4,2,1,0,0,0,6,0,3,0,-1,2,1,0,0,-1,0xa00,-1,-1,-1,0 
1,4,729,0,0,24133,.IMAD.MOV.U32,24123,24124,4,2,1,0,0,0,6,0,3,0,-1,2,1,0,0,-1,0xa10,-1,-1,-1,0 
1,4,730,0,0,24139,.LOP3.LUT,24123,24130,4,2,1,0,0,0,6,0,3,0,-1,2,1,0,0,-1,0xa20,-1,-1,-1,0 
1,4,731,0,0,24141,.IADD3,24130,24132,4,2,1,0,0,0,6,0,3,0,-1,2,1,0,0,-1,0xa30,-1,-1,-1,0 
1,4,732,0,0,24148,.IADD3,24130,24139,4,2,1,0,0,0,6,0,3,0,-1,2,1,0,0,-1,0xa40,-1,-1,-1,0 
1,4,733,0,0,24150,.ISETP.GT.U32.AND,24139,24141,4,1,0,0,0,0,6,0,3,0,-1,2,1,0,0,-1,0xa50,-1,-1,-1,0 
1,4,734,0,0,24157,.ISETP.GT.U32.OR,24139,24148,4,1,0,0,0,0,6,0,3,0,-1,2,1,0,0,-1,0xa60,-1,-1,-1,0 
1,4,736,0,0,24158,.BRA,24148,24150,4,0,0,0,0,0,100,0,7,0,-1,4,0,0,0,-1,0xa80,-1,-1,-1,0 
1,4,735,0,0,24159,.IMAD.MOV.U32,24148,24149,4,3,1,0,0,0,6,0,3,0,-1,2,0,0,0,-1,0xa70,-1,-1,-1,0 
1,4,737,0,0,24160,.IMAD.MOV.U32,24150,24151,4,2,1,0,0,0,6,0,3,0,-1,2,1,0,0,-1,0xa90,-1,-1,-1,0 
1,4,738,0,0,24161,.FSETP.GTU.FTZ.AND,24150,24152,4,1,0,0,0,0,5,0,1,0,-1,2,1,0,0,-1,0xaa0,-1,-1,-1,0 
1,4,739,0,0,24169,.FSETP.GTU.FTZ.AND,24152,24160,4,1,0,0,0,0,5,0,1,0,-1,2,1,0,0,-1,0xab0,-1,-1,-1,0 
1,4,740,0,0,24169,.PLOP3.LUT,24152,24161,4,0,0,0,0,0,1,0,3,0,-1,2,1,0,0,-1,0xac0,-1,-1,-1,0 
1,4,741,0,0,24170,.BREAK,24161,24162,4,0,0,0,0,0,100,0,7,0,-1,4,0,0,0,-1,0xad0,-1,-1,-1,0 
1,4,742,0,0,24171,.BRA,24161,24163,4,0,0,0,0,0,100,0,7,0,-1,4,0,0,0,-1,0xae0,-1,-1,-1,0 
1,4,743,0,0,24173,.LOP3.LUT,24163,24164,4,3,0,0,0,0,6,0,3,0,-1,2,1,0,0,-1,0xaf0,-1,-1,-1,0 
1,4,744,0,0,24173,.BREAK,24163,24165,4,0,0,0,0,0,100,0,7,0,-1,4,0,0,0,-1,0xb00,-1,-1,-1,0 
1,4,745,0,0,24174,.BRA,24165,24166,4,0,0,0,0,0,100,0,7,0,-1,4,0,0,0,-1,0xb10,-1,-1,-1,0 
1,4,746,0,0,24176,.FSETP.NEU.FTZ.AND,24165,24167,4,1,0,0,0,0,5,0,1,0,-1,2,1,0,0,-1,0xb20,-1,-1,-1,0 
1,4,747,0,0,24177,.FSETP.NEU.FTZ.AND,24167,24168,4,1,0,0,0,0,5,0,1,0,-1,2,1,0,0,-1,0xb30,-1,-1,-1,0 
1,4,748,0,0,24178,.FSETP.NEU.FTZ.AND,24167,24169,4,1,0,0,0,0,5,0,1,0,-1,2,1,0,0,-1,0xb40,-1,-1,-1,0 
1,4,749,0,0,24178,.BREAK,24169,24170,4,0,0,0,0,0,100,0,7,0,-1,4,0,0,0,-1,0xb50,-1,-1,-1,0 
1,4,750,0,0,24179,.BRA,24169,24171,4,0,0,0,0,0,100,0,7,0,-1,4,0,0,0,-1,0xb60,-1,-1,-1,0 
1,4,751,0,0,24181,.LOP3.LUT,24171,24172,4,3,0,0,0,0,6,0,3,0,-1,2,1,0,0,-1,0xb70,-1,-1,-1,0 
1,4,752,0,0,24181,.PLOP3.LUT,24171,24173,4,0,0,0,0,0,1,0,3,0,-1,2,1,0,0,-1,0xb80,-1,-1,-1,0 
1,4,753,0,0,24182,.BREAK,24173,24174,4,0,0,0,0,0,100,0,7,0,-1,4,1,0,0,-1,0xb90,-1,-1,-1,0 
1,4,754,0,0,24183,.BRA,24173,24175,4,0,0,0,0,0,100,0,7,0,-1,4,1,0,0,-1,0xba0,-1,-1,-1,0 
1,4,755,0,0,24185,.IMAD.MOV.U32,24175,24176,4,2,1,0,0,0,6,0,3,0,-1,2,1,0,0,-1,0x10c0,-1,-1,-1,0 
1,4,756,0,0,24186,.LOP3.LUT,24175,24177,4,2,1,0,0,0,6,0,3,0,-1,2,1,0,0,-1,0x10d0,-1,-1,-1,0 
1,4,757,0,0,24186,.RET.REL.NODEC,24177,24178,4,0,1,0,0,0,100,0,7,0,-1,4,1,0,0,-1,0x10e0,-1,-1,-1,0 
1,4,758,0,0,24187,.BSYNC,24177,24179,4,0,0,0,0,0,100,0,7,0,-1,4,1,0,0,-1,0x970,-1,-1,-1,0 
1,4,759,0,0,24195,.IMAD.MOV.U32,24179,24186,4,3,1,0,0,0,6,0,3,0,-1,2,1,0,0,-1,0x980,-1,-1,-1,0 
1,4,760,0,0,24195,.MOV,24179,24187,4,0,1,0,0,0,1,0,3,0,-1,2,1,0,0,-1,0x990,-1,-1,-1,0 
1,4,761,0,0,24196,.RET.REL.NODEC,24187,24188,4,0,1,0,0,0,100,0,7,0,-1,4,1,0,0,-1,0x9a0,-1,-1,-1,0 
1,4,762,0,0,24197,.BSYNC,24187,24189,4,0,0,0,0,0,100,0,7,0,-1,4,1,0,0,-1,0x4e0,-1,-1,-1,0 
1,4,763,0,0,24204,.IMAD.MOV.U32,24189,24195,4,2,1,0,0,0,6,0,3,0,-1,2,15,0,0,-1,0x850,-1,-1,-1,0 
1,4,764,0,0,24213,.FADD.FTZ,24189,24204,4,2,1,0,0,0,5,0,1,0,-1,2,15,0,0,-1,0x860,-1,-1,-1,0 
1,4,766,0,0,24215,.IMAD.MOV.U32,24204,24206,4,2,1,0,0,0,6,0,3,0,-1,2,15,0,0,-1,0x880,-1,-1,-1,0 
1,4,765,0,0,24230,.MUFU.RCP,24204,24205,20,1,1,0,0,0,2,0,4,0,-1,8,15,0,0,-1,0x870,-1,-1,-1,0 
1,4,767,0,0,24239,.FFMA,24206,24230,4,2,1,0,0,0,5,0,1,0,-1,2,15,0,0,-1,0x890,-1,-1,-1,0 
1,4,768,0,0,24248,.FFMA,24206,24239,4,3,1,0,0,0,5,0,1,0,-1,2,15,0,0,-1,0x8a0,-1,-1,-1,0 
1,4,769,0,0,24257,.FFMA,24239,24248,4,3,1,0,0,0,5,0,1,0,-1,2,15,0,0,-1,0x8b0,-1,-1,-1,0 
1,4,770,0,0,24266,.FFMA,24239,24257,4,3,1,0,0,0,5,0,1,0,-1,2,15,0,0,-1,0x8c0,-1,-1,-1,0 
1,4,771,0,0,24275,.FFMA,24257,24266,4,3,1,0,0,0,5,0,1,0,-1,2,15,0,0,-1,0x8d0,-1,-1,-1,0 
1,4,772,0,0,24284,.FFMA,24257,24275,4,3,1,0,0,0,5,0,1,0,-1,2,15,0,0,-1,0x8e0,-1,-1,-1,0 
1,4,773,0,0,24293,.FFMA,24275,24284,4,3,1,0,0,0,5,0,1,0,-1,2,15,0,0,-1,0x8f0,-1,-1,-1,0 
1,4,774,0,0,24293,.RET.REL.NODEC,24275,24285,4,0,1,0,0,0,100,0,7,0,-1,4,15,0,0,-1,0x900,-1,-1,-1,0 
1,4,775,0,0,24294,.BSYNC,24285,24286,4,0,0,0,0,0,100,0,7,0,-1,4,15,0,0,-1,0x4e0,-1,-1,-1,0 
1,4,776,0,0,24302,.FADD,24285,24293,4,2,1,0,0,0,5,0,1,0,-1,2,16,0,0,-1,0x4f0,-1,-1,-1,0 
1,4,777,0,0,24302,.BMOV.32.CLEAR,24293,24294,4,0,1,0,0,0,100,0,7,0,-1,4,16,0,0,-1,0x500,-1,-1,-1,0 
1,4,778,0,0,24304,.FADD,24293,24295,4,1,1,0,0,0,5,0,1,0,-1,2,16,0,0,-1,0x510,-1,-1,-1,0 
1,4,779,0,0,24304,.BSSY,24295,24296,4,0,0,0,0,0,100,0,7,0,-1,4,16,0,0,-1,0x520,-1,-1,-1,0 
1,4,780,0,0,24311,.FADD,24295,24302,4,1,1,0,0,0,5,0,1,0,-1,2,16,0,0,-1,0x530,-1,-1,-1,0 
1,4,781,0,0,24320,.FMUL,24302,24311,4,2,1,0,0,0,5,0,1,0,-1,2,16,0,0,-1,0x540,-1,-1,-1,0 
1,4,782,0,0,24329,.FFMA,24302,24320,4,3,1,0,0,0,5,0,1,0,-1,2,16,0,0,-1,0x550,-1,-1,-1,0 
1,4,783,0,0,24338,.IADD3,24320,24329,4,2,1,0,0,0,6,0,3,0,-1,2,16,0,0,-1,0x560,-1,-1,-1,0 
1,4,784,0,0,24347,.ISETP.GT.U32.AND,24320,24338,4,1,0,0,0,0,6,0,3,0,-1,2,16,0,0,-1,0x570,-1,-1,-1,0 
1,4,785,0,0,24347,.BRA,24338,24339,4,0,0,0,0,0,100,0,7,0,-1,4,16,0,0,-1,0x580,-1,-1,-1,0 
1,4,786,0,0,24365,.MUFU.RSQ,24338,24340,20,1,1,0,0,0,2,0,4,0,-1,8,16,0,0,-1,0x5f0,-1,-1,-1,0 
1,4,787,0,0,24374,.FMUL.FTZ,24340,24365,4,2,1,0,0,0,5,0,1,0,-1,2,16,0,0,-1,0x600,-1,-1,-1,0 
1,4,788,0,0,24375,.FMUL.FTZ,24340,24366,4,1,1,0,0,0,5,0,1,0,-1,2,16,0,0,-1,0x610,-1,-1,-1,0 
1,4,789,0,0,24383,.FADD.FTZ,24366,24374,4,2,1,0,0,0,5,0,1,0,-1,2,16,0,0,-1,0x620,-1,-1,-1,0 
1,4,790,0,0,24392,.FFMA,24366,24383,4,3,1,0,0,0,5,0,1,0,-1,2,16,0,0,-1,0x630,-1,-1,-1,0 
1,4,791,0,0,24401,.FFMA,24383,24392,4,3,1,0,0,0,5,0,1,0,-1,2,16,0,0,-1,0x640,-1,-1,-1,0 
1,4,792,0,0,24401,.BSYNC,24383,24393,4,0,0,0,0,0,100,0,7,0,-1,4,16,0,0,-1,0x650,-1,-1,-1,0 
1,4,793,0,0,24403,.IMAD.MOV.U32,24393,24394,4,2,1,0,0,0,6,0,3,0,-1,2,16,0,0,-1,0x660,-1,-1,-1,0 
1,4,794,0,0,24412,.IMAD.WIDE,24393,24403,4,2,1,0,0,0,6,0,3,0,-1,2,16,0,0,-1,0x670,-1,-1,-1,0 
1,4,795,0,0,24416,.STG.E.SYS,24403,24412,1,2,0,0,1,4,11,0,6,0,-1,1,16,0,0,-1,0x680,-1,-1,-1,1 
1,4,796,0,0,24418,.EXIT,24403,24413,1,0,0,0,0,0,17,0,3,0,-1,1,16,0,0,-1,0x690,-1,-1,-1,0 
Destroy streams for kernel 4: size 0


gpgpu_simulation_time = 0 days, 0 hrs, 0 min, 2 sec (2 sec)
gpgpu_simulation_rate = 3942 (inst/sec)
gpgpu_simulation_rate = 12302 (cycle/sec)
gpgpu_silicon_slowdown = 92017x
GPGPU-Sim: *** simulation thread exiting ***
GPGPU-Sim: *** exit detected ***
