

        *** GPGPU-Sim Simulator Version 4.0.0  [build gpgpu-sim_git-commit-90ec3399763d7c8512cfe7dc193473086c38ca38_modified_14.0] ***


addr_dec_mask[CHIP]  = 0000000000001f00 	high:13 low:8
addr_dec_mask[BK]    = 00000000000e2000 	high:20 low:13
addr_dec_mask[ROW]   = 00000001fff00000 	high:33 low:20
addr_dec_mask[COL]   = 000000000001c0ff 	high:17 low:0
addr_dec_mask[BURST] = 000000000000001f 	high:5 low:0
sub_partition_id_mask = 0000000000002000
GPGPU-Sim uArch: clock freqs: 1132000000.000000:1132000000.000000:1132000000.000000:850000000.000000
GPGPU-Sim uArch: clock periods: 0.00000000088339222615:0.00000000088339222615:0.00000000088339222615:0.00000000117647058824
GPGPU-Sim uArch: performance model initialization complete.
launching memcpy command : MemcpyHtoD,0x00007f188b700000,4000
launching memcpy command : MemcpyHtoD,0x00007f188b702000,76000
-kernel name = _Z14dynproc_kerneliPiS_S_iiii
-kernel id = 1
-grid dim = (5,1,1)
-block dim = (256,1,1)
-shmem = 2048
-nregs = 18
-binary version = 70
-cuda stream id = 0
-shmem base_addr = 0x00007f18c2000000
-local mem base_addr = 0x00007f18c4000000
-nvbit version = 1.4
-accelsim tracer version = 3
launching kernel command : /scratch/santosh/gpu_simulation/accel-sim-framework/traces/rodinia_2.0-ft/11.0/pathfinder-rodinia-2.0-ft/1000_20_5___data_result_1000_20_5_txt/traces/kernel-1.traceg
GPGPU-Sim uArch: Shader 0 bind to kernel 1 '_Z14dynproc_kerneliPiS_S_iiii'
GPGPU-Sim uArch: CTA/core = 32, limited by: cta_limit
GPGPU-Sim: Reconfigure L1 cache to 120KB
GPGPUsim: cta_size: 32
ctaid: 0, start warp: 0, end_warp: 1, start_thread: 0, end_thread: 32
thread block = 0,0,0
warp id: 0
warp id: 1
warp_id: 0, insts: 234
1,1,1,0,0,5011,.IMAD.MOV.U32,5001,5002,4,2,1,0,0,0,6,0,3,0,-1,2,32,0,0,-1,0,-1,-1,-1,0 
1,1,3,0,0,5012,.S2R,5003,5004,4,0,1,0,0,0,1,0,3,0,-1,2,32,0,0,-1,0x20,-1,-1,-1,0 
1,1,2,0,0,5013,.SHFL.IDX,5001,5003,4,4,0,0,0,0,1,0,3,0,-1,2,0,0,0,-1,0x10,-1,-1,-1,0 
1,1,4,0,0,5014,.IMAD.MOV,5003,5005,4,2,1,0,0,0,6,0,3,0,-1,2,32,0,0,-1,0x30,-1,-1,-1,0 
1,1,5,0,0,5015,.IMAD.MOV.U32,5005,5006,4,2,1,0,0,0,6,0,3,0,-1,2,32,0,0,-1,0x40,-1,-1,-1,0 
1,1,6,0,0,5015,.S2R,5005,5007,4,0,1,0,0,0,1,0,3,0,-1,2,32,0,0,-1,0x50,-1,-1,-1,0 
1,1,7,0,0,5023,.LEA,5007,5014,4,1,1,0,0,0,6,0,3,0,-1,2,32,0,0,-1,0x60,-1,-1,-1,0 
1,1,8,0,0,5024,.IADD3,5007,5015,4,2,1,0,0,0,6,0,3,0,-1,2,32,0,0,-1,0x70,-1,-1,-1,0 
1,1,9,0,0,5032,.IMAD,5015,5023,4,2,1,0,0,0,6,0,3,0,-1,2,32,0,0,-1,0x80,-1,-1,-1,0 
1,1,10,0,0,5041,.IMAD.IADD,5015,5032,4,2,1,0,0,0,6,0,3,0,-1,2,32,0,0,-1,0x90,-1,-1,-1,0 
1,1,11,0,0,5050,.ISETP.GT.AND,5032,5041,4,2,0,0,0,0,6,0,3,0,-1,2,32,0,0,-1,0xa0,-1,-1,-1,0 
1,1,12,0,0,5051,.ISETP.GT.AND,5032,5042,4,1,0,0,0,0,6,0,3,0,-1,2,32,0,0,-1,0xb0,-1,-1,-1,0 
1,1,13,0,0,5052,.IMAD.MOV.U32,5042,5043,4,2,1,0,0,0,6,0,3,0,-1,2,27,0,0,-1,0xc0,-1,-1,-1,0 
1,1,14,0,0,5061,.IMAD.WIDE,5042,5052,4,2,1,0,0,0,6,0,3,0,-1,2,27,0,0,-1,0xd0,-1,-1,-1,0 
1,1,16,0,0,5071,.IMAD.SHL.U32,5052,5062,4,2,1,0,0,0,6,0,3,0,-1,2,27,0,0,-1,0xf0,-1,-1,-1,0 
1,1,17,0,0,5072,.SHF.R.S32.HI,5062,5063,4,2,1,0,0,0,6,0,3,0,-1,2,32,0,0,-1,0x100,-1,-1,-1,0 
1,1,18,0,0,5073,.IMAD.MOV.U32,5062,5064,4,2,1,0,0,0,6,0,3,0,-1,2,32,0,0,-1,0x110,-1,-1,-1,0 
1,1,19,0,0,5075,.IMAD.MOV,5064,5065,4,3,1,0,0,0,6,0,3,0,-1,2,32,0,0,-1,0x120,-1,-1,-1,0 
1,1,20,0,0,5084,.LOP3.LUT,5064,5075,4,3,1,0,0,0,6,0,3,0,-1,2,32,0,0,-1,0x130,-1,-1,-1,0 
1,1,15,0,0,5393,.LDG.E.SYS,5052,5061,1,1,1,1,0,4,8,0,6,0,-1,1,27,0,0,-1,0xe0,-1,-1,-1,1 
1,1,21,0,0,5397,.STS,5075,5393,1,2,0,0,1,4,11,0,6,0,-1,1,27,0,0,-1,0x140,-1,-1,-1,0 
1,1,22,0,0,5403,.ISETP.LE.AND,5075,5394,4,1,0,0,0,0,6,0,3,0,-1,2,32,0,0,-1,0x150,-1,-1,-1,0 
1,1,23,0,0,5403,.BRA,5394,5395,4,0,0,0,0,0,100,0,7,0,-1,4,0,0,0,-1,0x160,-1,-1,-1,0 
1,1,24,0,0,5405,.IADD3,5394,5396,4,2,1,0,0,0,6,0,3,0,-1,2,32,0,0,-1,0x170,-1,-1,-1,0 
1,1,25,0,0,5406,.IMAD.MOV.U32,5396,5397,4,2,1,0,0,0,6,0,3,0,-1,2,32,0,0,-1,0x180,-1,-1,-1,0 
1,1,26,0,0,5407,.IADD3,5396,5398,4,2,1,0,0,0,6,0,3,0,-1,2,32,0,0,-1,0x190,-1,-1,-1,0 
1,1,27,0,0,5414,.IADD3,5398,5405,4,2,1,0,0,0,6,0,3,0,-1,2,32,0,0,-1,0x1a0,-1,-1,-1,0 
1,1,28,0,0,5416,.ISETP.GT.AND,5398,5407,4,2,0,0,0,0,6,0,3,0,-1,2,32,0,0,-1,0x1b0,-1,-1,-1,0 
1,1,29,0,0,5417,.IADD3,5407,5408,4,2,1,0,0,0,6,0,3,0,-1,2,32,0,0,-1,0x1c0,-1,-1,-1,0 
1,1,30,0,0,5423,.IADD3,5407,5414,4,2,1,0,0,0,6,0,3,0,-1,2,32,0,0,-1,0x1d0,-1,-1,-1,0 
1,1,31,0,0,5424,.IMAD,5414,5415,4,2,1,0,0,0,6,0,3,0,-1,2,32,0,0,-1,0x1e0,-1,-1,-1,0 
1,1,32,0,0,5426,.ISETP.LT.AND,5414,5417,4,2,0,0,0,0,6,0,3,0,-1,2,32,0,0,-1,0x1f0,-1,-1,-1,0 
1,1,33,0,0,5427,.ISETP.GE.AND,5417,5418,4,2,0,0,0,0,6,0,3,0,-1,2,32,0,0,-1,0x200,-1,-1,-1,0 
1,1,34,0,0,5433,.IMAD,5417,5424,4,3,1,0,0,0,6,0,3,0,-1,2,32,0,0,-1,0x210,-1,-1,-1,0 
1,1,35,0,0,5434,.SEL,5424,5425,4,2,1,0,0,0,1,0,3,0,-1,2,32,0,0,-1,0x220,-1,-1,-1,0 
1,1,36,0,0,5436,.IMAD.MOV.U32,5424,5426,4,3,1,0,0,0,6,0,3,0,-1,2,32,0,0,-1,0x230,-1,-1,-1,0 
1,1,37,0,0,5436,.SEL,5426,5427,4,1,1,0,0,0,1,0,3,0,-1,2,32,0,0,-1,0x240,-1,-1,-1,0 
1,1,38,0,0,5437,.IADD3,5426,5428,4,2,1,0,0,0,6,0,3,0,-1,2,32,0,0,-1,0x250,-1,-1,-1,0 
1,1,39,0,0,5444,.IMAD.SHL.U32,5428,5434,4,2,1,0,0,0,6,0,3,0,-1,2,32,0,0,-1,0x260,-1,-1,-1,0 
1,1,40,0,0,5445,.ISETP.LE.AND,5428,5436,4,2,0,0,0,0,6,0,3,0,-1,2,32,0,0,-1,0x270,-1,-1,-1,0 
1,1,41,0,0,5446,.IADD3,5436,5437,4,2,1,0,0,0,6,0,3,0,-1,2,32,0,0,-1,0x280,-1,-1,-1,0 
1,1,42,0,0,5447,.IADD3,5436,5438,4,2,1,0,0,0,6,0,3,0,-1,2,32,0,0,-1,0x290,-1,-1,-1,0 
1,1,43,0,0,5448,.IADD3,5438,5439,4,2,1,0,0,0,6,0,3,0,-1,2,32,0,0,-1,0x2a0,-1,-1,-1,0 
1,1,44,0,0,5456,.ISETP.GE.AND,5438,5447,4,2,0,0,0,0,6,0,3,0,-1,2,32,0,0,-1,0x2b0,-1,-1,-1,0 
1,1,45,0,0,5457,.ISETP.LE.AND,5447,5448,4,2,0,0,0,0,6,0,3,0,-1,2,32,0,0,-1,0x2c0,-1,-1,-1,0 
1,1,46,0,0,5457,.PLOP3.LUT,5447,5449,4,0,0,0,0,0,1,0,3,0,-1,2,32,0,0,-1,0x2d0,-1,-1,-1,0 
1,1,47,0,0,5459,.IMAD.MOV.U32,5449,5450,4,2,1,0,0,0,6,0,3,0,-1,2,27,0,0,-1,0x2e0,-1,-1,-1,0 
1,1,48,0,0,5468,.IMAD.WIDE,5449,5459,4,2,1,0,0,0,6,0,3,0,-1,2,27,0,0,-1,0x2f0,-1,-1,-1,0 
1,1,50,0,0,5478,.ISETP.GE.AND,5459,5469,4,2,0,0,0,0,6,0,3,0,-1,2,27,0,0,-1,0x310,-1,-1,-1,0 
1,1,51,0,0,5479,.IMAD.SHL.U32,5469,5470,4,2,1,0,0,0,6,0,3,0,-1,2,27,0,0,-1,0x320,-1,-1,-1,0 
1,1,52,0,0,5480,.IADD3,5469,5471,4,2,1,0,0,0,6,0,3,0,-1,2,27,0,0,-1,0x330,-1,-1,-1,0 
1,1,53,0,0,5489,.SEL,5471,5480,4,2,1,0,0,0,1,0,3,0,-1,2,27,0,0,-1,0x340,-1,-1,-1,0 
1,1,54,0,0,5490,.IMAD.MOV.U32,5471,5481,4,2,1,0,0,0,6,0,3,0,-1,2,32,0,0,-1,0x350,-1,-1,-1,0 
1,1,56,0,0,5498,.IMAD.SHL.U32,5481,5489,4,2,1,0,0,0,6,0,3,0,-1,2,27,0,0,-1,0x370,-1,-1,-1,0 
1,1,55,0,0,5507,.LDS.U,5481,5482,1,1,1,1,0,4,8,0,6,0,-1,1,27,0,0,-1,0x360,-1,-1,-1,0 
1,1,57,0,0,5514,.LDS.U,5489,5490,1,1,1,1,0,4,8,0,6,0,-1,1,27,0,0,-1,0x380,-1,-1,-1,0 
1,1,58,0,0,5522,.LDS.U,5489,5498,1,1,1,1,0,4,8,0,6,0,-1,1,27,0,0,-1,0x390,-1,-1,-1,0 
1,1,59,0,0,5523,.ISETP.LT.AND,5498,5514,4,2,0,0,0,0,6,0,3,0,-1,2,27,0,0,-1,0x3a0,-1,-1,-1,0 
1,1,60,0,0,5524,.SEL,5498,5515,4,2,1,0,0,0,1,0,3,0,-1,2,27,0,0,-1,0x3b0,-1,-1,-1,0 
1,1,61,0,0,5533,.ISETP.LT.AND,5515,5524,4,2,0,0,0,0,6,0,3,0,-1,2,27,0,0,-1,0x3c0,-1,-1,-1,0 
1,1,62,0,0,5534,.SEL,5515,5525,4,2,1,0,0,0,1,0,3,0,-1,2,27,0,0,-1,0x3d0,-1,-1,-1,0 
1,1,63,0,0,5535,.ISETP.NE.AND,5525,5526,4,2,0,0,0,0,6,0,3,0,-1,2,32,0,0,-1,0x3e0,-1,-1,-1,0 
1,1,49,0,0,5801,.LDG.E.SYS,5459,5468,1,1,1,1,0,4,8,0,6,0,-1,1,27,0,0,-1,0x300,-1,-1,-1,1 
1,1,64,0,0,5810,.IMAD.IADD,5525,5801,4,2,1,0,0,0,6,0,3,0,-1,2,27,0,0,-1,0x3f0,-1,-1,-1,0 
1,1,65,0,0,5811,.PRMT,5801,5802,4,2,1,0,0,0,1,0,3,0,-1,2,32,0,0,-1,0x400,-1,-1,-1,0 
1,1,67,0,0,5816,.STS,5811,5812,1,2,0,0,1,4,11,0,6,0,-1,1,27,0,0,-1,0x420,-1,-1,-1,0 
1,1,69,0,0,5819,.BAR.SYNC,5813,5814,1,0,0,0,0,0,13,0,3,0,-1,1,32,0,0,-1,0x440,1,-1,-1,0 
1,1,66,0,0,5820,.PRMT,5801,5811,4,2,1,0,0,0,1,0,3,0,-1,2,27,0,0,-1,0x410,-1,-1,-1,0 
1,1,68,0,0,5821,.NOP,5811,5813,4,0,0,0,0,0,1,0,3,0,-1,2,32,0,0,-1,0x430,-1,-1,-1,0 
1,1,70,0,0,5823,.BRA,5813,5815,4,0,0,0,0,0,100,0,7,0,-1,4,0,0,0,-1,0x450,-1,-1,-1,0 
1,1,71,0,0,5829,.PRMT,5815,5820,4,2,1,0,0,0,1,0,3,0,-1,2,32,0,0,-1,0x460,-1,-1,-1,0 
1,1,72,0,0,5830,.IADD3,5815,5821,4,2,1,0,0,0,6,0,3,0,-1,2,32,0,0,-1,0x470,-1,-1,-1,0 
1,1,73,0,0,5838,.ISETP.NE.AND,5821,5829,4,2,0,0,0,0,6,0,3,0,-1,2,32,0,0,-1,0x480,-1,-1,-1,0 
1,1,74,0,0,5839,.IMAD.MOV.U32,5821,5830,4,3,1,0,0,0,6,0,3,0,-1,2,32,0,0,-1,0x490,-1,-1,-1,0 
1,1,75,0,0,5840,.IADD3,5830,5831,4,2,1,0,0,0,6,0,3,0,-1,2,32,0,0,-1,0x4a0,-1,-1,-1,0 
1,1,76,0,0,5841,.IMAD.SHL.U32,5830,5832,4,2,1,0,0,0,6,0,3,0,-1,2,27,0,0,-1,0x4b0,-1,-1,-1,0 
1,1,77,0,0,5865,.LDS.U,5832,5841,1,1,1,1,0,4,8,0,6,0,-1,1,27,0,0,-1,0x4c0,-1,-1,-1,0 
1,1,78,0,0,5868,.STS,5832,5865,1,2,0,0,1,4,11,0,6,0,-1,1,27,0,0,-1,0x4d0,-1,-1,-1,0 
1,1,79,0,0,5875,.ISETP.GE.AND,5865,5866,4,1,0,0,0,0,6,0,3,0,-1,2,32,0,0,-1,0x4e0,-1,-1,-1,0 
1,1,80,0,0,5875,.BRA,5865,5867,4,0,0,0,0,0,100,0,7,0,-1,4,32,0,0,-1,0x4f0,-1,-1,-1,0 
1,1,81,0,0,5877,.IADD3,5867,5868,4,2,1,0,0,0,6,0,3,0,-1,2,32,0,0,-1,0x290,-1,-1,-1,0 
1,1,82,0,0,5878,.IADD3,5867,5869,4,2,1,0,0,0,6,0,3,0,-1,2,32,0,0,-1,0x2a0,-1,-1,-1,0 
1,1,83,0,0,5886,.ISETP.GE.AND,5869,5877,4,2,0,0,0,0,6,0,3,0,-1,2,32,0,0,-1,0x2b0,-1,-1,-1,0 
1,1,84,0,0,5887,.ISETP.LE.AND,5869,5878,4,2,0,0,0,0,6,0,3,0,-1,2,32,0,0,-1,0x2c0,-1,-1,-1,0 
1,1,85,0,0,5887,.PLOP3.LUT,5878,5879,4,0,0,0,0,0,1,0,3,0,-1,2,32,0,0,-1,0x2d0,-1,-1,-1,0 
1,1,86,0,0,5889,.IMAD.MOV.U32,5878,5880,4,2,1,0,0,0,6,0,3,0,-1,2,27,0,0,-1,0x2e0,-1,-1,-1,0 
1,1,87,0,0,5898,.IMAD.WIDE,5880,5889,4,2,1,0,0,0,6,0,3,0,-1,2,27,0,0,-1,0x2f0,-1,-1,-1,0 
1,1,89,0,0,5908,.ISETP.GE.AND,5898,5899,4,2,0,0,0,0,6,0,3,0,-1,2,27,0,0,-1,0x310,-1,-1,-1,0 
1,1,90,0,0,5909,.IMAD.SHL.U32,5898,5900,4,2,1,0,0,0,6,0,3,0,-1,2,27,0,0,-1,0x320,-1,-1,-1,0 
1,1,91,0,0,5910,.IADD3,5900,5901,4,2,1,0,0,0,6,0,3,0,-1,2,27,0,0,-1,0x330,-1,-1,-1,0 
1,1,92,0,0,5919,.SEL,5900,5910,4,2,1,0,0,0,1,0,3,0,-1,2,27,0,0,-1,0x340,-1,-1,-1,0 
1,1,93,0,0,5920,.IMAD.MOV.U32,5910,5911,4,2,1,0,0,0,6,0,3,0,-1,2,32,0,0,-1,0x350,-1,-1,-1,0 
1,1,95,0,0,5928,.IMAD.SHL.U32,5912,5919,4,2,1,0,0,0,6,0,3,0,-1,2,27,0,0,-1,0x370,-1,-1,-1,0 
1,1,94,0,0,5937,.LDS.U,5910,5912,1,1,1,1,0,4,8,0,6,0,-1,1,27,0,0,-1,0x360,-1,-1,-1,0 
1,1,96,0,0,5944,.LDS.U,5912,5920,1,1,1,1,0,4,8,0,6,0,-1,1,27,0,0,-1,0x380,-1,-1,-1,0 
1,1,97,0,0,5952,.LDS.U,5920,5928,1,1,1,1,0,4,8,0,6,0,-1,1,27,0,0,-1,0x390,-1,-1,-1,0 
1,1,98,0,0,5953,.ISETP.LT.AND,5920,5944,4,2,0,0,0,0,6,0,3,0,-1,2,27,0,0,-1,0x3a0,-1,-1,-1,0 
1,1,99,0,0,5954,.SEL,5944,5945,4,2,1,0,0,0,1,0,3,0,-1,2,27,0,0,-1,0x3b0,-1,-1,-1,0 
1,1,100,0,0,5963,.ISETP.LT.AND,5944,5954,4,2,0,0,0,0,6,0,3,0,-1,2,27,0,0,-1,0x3c0,-1,-1,-1,0 
1,1,101,0,0,5964,.SEL,5954,5955,4,2,1,0,0,0,1,0,3,0,-1,2,27,0,0,-1,0x3d0,-1,-1,-1,0 
1,1,102,0,0,5965,.ISETP.NE.AND,5954,5956,4,2,0,0,0,0,6,0,3,0,-1,2,32,0,0,-1,0x3e0,-1,-1,-1,0 
1,1,88,0,0,6092,.LDG.E.SYS,5880,5898,1,1,1,1,0,4,8,0,6,0,-1,1,27,0,0,-1,0x300,-1,-1,-1,1 
1,1,103,0,0,6101,.IMAD.IADD,5956,6092,4,2,1,0,0,0,6,0,3,0,-1,2,27,0,0,-1,0x3f0,-1,-1,-1,0 
1,1,104,0,0,6102,.PRMT,5956,6093,4,2,1,0,0,0,1,0,3,0,-1,2,32,0,0,-1,0x400,-1,-1,-1,0 
1,1,106,0,0,6107,.STS,6093,6103,1,2,0,0,1,4,11,0,6,0,-1,1,27,0,0,-1,0x420,-1,-1,-1,0 
1,1,108,0,0,6110,.BAR.SYNC,6103,6105,1,0,0,0,0,0,13,0,3,0,-1,1,32,0,0,-1,0x440,1,-1,-1,0 
1,1,105,0,0,6111,.PRMT,6093,6102,4,2,1,0,0,0,1,0,3,0,-1,2,27,0,0,-1,0x410,-1,-1,-1,0 
1,1,107,0,0,6112,.NOP,6103,6104,4,0,0,0,0,0,1,0,3,0,-1,2,32,0,0,-1,0x430,-1,-1,-1,0 
1,1,109,0,0,6114,.BRA,6105,6106,4,0,0,0,0,0,100,0,7,0,-1,4,0,0,0,-1,0x450,-1,-1,-1,0 
1,1,110,0,0,6120,.PRMT,6105,6111,4,2,1,0,0,0,1,0,3,0,-1,2,32,0,0,-1,0x460,-1,-1,-1,0 
1,1,111,0,0,6121,.IADD3,6111,6112,4,2,1,0,0,0,6,0,3,0,-1,2,32,0,0,-1,0x470,-1,-1,-1,0 
1,1,112,0,0,6129,.ISETP.NE.AND,6111,6120,4,2,0,0,0,0,6,0,3,0,-1,2,32,0,0,-1,0x480,-1,-1,-1,0 
1,1,113,0,0,6130,.IMAD.MOV.U32,6120,6121,4,3,1,0,0,0,6,0,3,0,-1,2,32,0,0,-1,0x490,-1,-1,-1,0 
1,1,114,0,0,6131,.IADD3,6120,6122,4,2,1,0,0,0,6,0,3,0,-1,2,32,0,0,-1,0x4a0,-1,-1,-1,0 
1,1,115,0,0,6132,.IMAD.SHL.U32,6122,6123,4,2,1,0,0,0,6,0,3,0,-1,2,27,0,0,-1,0x4b0,-1,-1,-1,0 
1,1,116,0,0,6156,.LDS.U,6122,6132,1,1,1,1,0,4,8,0,6,0,-1,1,27,0,0,-1,0x4c0,-1,-1,-1,0 
1,1,117,0,0,6159,.STS,6132,6156,1,2,0,0,1,4,11,0,6,0,-1,1,27,0,0,-1,0x4d0,-1,-1,-1,0 
1,1,118,0,0,6166,.ISETP.GE.AND,6132,6157,4,1,0,0,0,0,6,0,3,0,-1,2,32,0,0,-1,0x4e0,-1,-1,-1,0 
1,1,119,0,0,6166,.BRA,6157,6158,4,0,0,0,0,0,100,0,7,0,-1,4,32,0,0,-1,0x4f0,-1,-1,-1,0 
1,1,120,0,0,6168,.IADD3,6157,6159,4,2,1,0,0,0,6,0,3,0,-1,2,32,0,0,-1,0x290,-1,-1,-1,0 
1,1,121,0,0,6169,.IADD3,6159,6160,4,2,1,0,0,0,6,0,3,0,-1,2,32,0,0,-1,0x2a0,-1,-1,-1,0 
1,1,122,0,0,6177,.ISETP.GE.AND,6159,6168,4,2,0,0,0,0,6,0,3,0,-1,2,32,0,0,-1,0x2b0,-1,-1,-1,0 
1,1,123,0,0,6178,.ISETP.LE.AND,6168,6169,4,2,0,0,0,0,6,0,3,0,-1,2,32,0,0,-1,0x2c0,-1,-1,-1,0 
1,1,124,0,0,6178,.PLOP3.LUT,6168,6170,4,0,0,0,0,0,1,0,3,0,-1,2,32,0,0,-1,0x2d0,-1,-1,-1,0 
1,1,125,0,0,6180,.IMAD.MOV.U32,6170,6171,4,2,1,0,0,0,6,0,3,0,-1,2,27,0,0,-1,0x2e0,-1,-1,-1,0 
1,1,126,0,0,6189,.IMAD.WIDE,6170,6180,4,2,1,0,0,0,6,0,3,0,-1,2,27,0,0,-1,0x2f0,-1,-1,-1,0 
1,1,128,0,0,6199,.ISETP.GE.AND,6180,6190,4,2,0,0,0,0,6,0,3,0,-1,2,27,0,0,-1,0x310,-1,-1,-1,0 
1,1,129,0,0,6200,.IMAD.SHL.U32,6190,6191,4,2,1,0,0,0,6,0,3,0,-1,2,27,0,0,-1,0x320,-1,-1,-1,0 
1,1,130,0,0,6201,.IADD3,6190,6192,4,2,1,0,0,0,6,0,3,0,-1,2,27,0,0,-1,0x330,-1,-1,-1,0 
1,1,131,0,0,6210,.SEL,6192,6201,4,2,1,0,0,0,1,0,3,0,-1,2,27,0,0,-1,0x340,-1,-1,-1,0 
1,1,132,0,0,6211,.IMAD.MOV.U32,6192,6202,4,2,1,0,0,0,6,0,3,0,-1,2,32,0,0,-1,0x350,-1,-1,-1,0 
1,1,134,0,0,6219,.IMAD.SHL.U32,6202,6210,4,2,1,0,0,0,6,0,3,0,-1,2,27,0,0,-1,0x370,-1,-1,-1,0 
1,1,133,0,0,6228,.LDS.U,6202,6203,1,1,1,1,0,4,8,0,6,0,-1,1,27,0,0,-1,0x360,-1,-1,-1,0 
1,1,135,0,0,6235,.LDS.U,6210,6211,1,1,1,1,0,4,8,0,6,0,-1,1,27,0,0,-1,0x380,-1,-1,-1,0 
1,1,136,0,0,6243,.LDS.U,6210,6219,1,1,1,1,0,4,8,0,6,0,-1,1,27,0,0,-1,0x390,-1,-1,-1,0 
1,1,137,0,0,6244,.ISETP.LT.AND,6219,6235,4,2,0,0,0,0,6,0,3,0,-1,2,27,0,0,-1,0x3a0,-1,-1,-1,0 
1,1,138,0,0,6245,.SEL,6219,6236,4,2,1,0,0,0,1,0,3,0,-1,2,27,0,0,-1,0x3b0,-1,-1,-1,0 
1,1,139,0,0,6254,.ISETP.LT.AND,6236,6245,4,2,0,0,0,0,6,0,3,0,-1,2,27,0,0,-1,0x3c0,-1,-1,-1,0 
1,1,140,0,0,6255,.SEL,6236,6246,4,2,1,0,0,0,1,0,3,0,-1,2,27,0,0,-1,0x3d0,-1,-1,-1,0 
1,1,141,0,0,6256,.ISETP.NE.AND,6246,6247,4,2,0,0,0,0,6,0,3,0,-1,2,32,0,0,-1,0x3e0,-1,-1,-1,0 
1,1,127,0,0,6383,.LDG.E.SYS,6180,6189,1,1,1,1,0,4,8,0,6,0,-1,1,27,0,0,-1,0x300,-1,-1,-1,1 
1,1,142,0,0,6392,.IMAD.IADD,6246,6383,4,2,1,0,0,0,6,0,3,0,-1,2,27,0,0,-1,0x3f0,-1,-1,-1,0 
1,1,143,0,0,6393,.PRMT,6383,6384,4,2,1,0,0,0,1,0,3,0,-1,2,32,0,0,-1,0x400,-1,-1,-1,0 
1,1,145,0,0,6398,.STS,6393,6394,1,2,0,0,1,4,11,0,6,0,-1,1,27,0,0,-1,0x420,-1,-1,-1,0 
1,1,147,0,0,6401,.BAR.SYNC,6395,6396,1,0,0,0,0,0,13,0,3,0,-1,1,32,0,0,-1,0x440,1,-1,-1,0 
1,1,144,0,0,6402,.PRMT,6383,6393,4,2,1,0,0,0,1,0,3,0,-1,2,27,0,0,-1,0x410,-1,-1,-1,0 
1,1,146,0,0,6403,.NOP,6393,6395,4,0,0,0,0,0,1,0,3,0,-1,2,32,0,0,-1,0x430,-1,-1,-1,0 
1,1,148,0,0,6405,.BRA,6395,6397,4,0,0,0,0,0,100,0,7,0,-1,4,0,0,0,-1,0x450,-1,-1,-1,0 
1,1,149,0,0,6411,.PRMT,6397,6402,4,2,1,0,0,0,1,0,3,0,-1,2,32,0,0,-1,0x460,-1,-1,-1,0 
1,1,150,0,0,6412,.IADD3,6397,6403,4,2,1,0,0,0,6,0,3,0,-1,2,32,0,0,-1,0x470,-1,-1,-1,0 
1,1,151,0,0,6420,.ISETP.NE.AND,6403,6411,4,2,0,0,0,0,6,0,3,0,-1,2,32,0,0,-1,0x480,-1,-1,-1,0 
1,1,152,0,0,6421,.IMAD.MOV.U32,6403,6412,4,3,1,0,0,0,6,0,3,0,-1,2,32,0,0,-1,0x490,-1,-1,-1,0 
1,1,153,0,0,6422,.IADD3,6412,6413,4,2,1,0,0,0,6,0,3,0,-1,2,32,0,0,-1,0x4a0,-1,-1,-1,0 
1,1,154,0,0,6423,.IMAD.SHL.U32,6412,6414,4,2,1,0,0,0,6,0,3,0,-1,2,27,0,0,-1,0x4b0,-1,-1,-1,0 
1,1,155,0,0,6447,.LDS.U,6414,6423,1,1,1,1,0,4,8,0,6,0,-1,1,27,0,0,-1,0x4c0,-1,-1,-1,0 
1,1,156,0,0,6450,.STS,6414,6447,1,2,0,0,1,4,11,0,6,0,-1,1,27,0,0,-1,0x4d0,-1,-1,-1,0 
1,1,157,0,0,6457,.ISETP.GE.AND,6447,6448,4,1,0,0,0,0,6,0,3,0,-1,2,32,0,0,-1,0x4e0,-1,-1,-1,0 
1,1,158,0,0,6457,.BRA,6447,6449,4,0,0,0,0,0,100,0,7,0,-1,4,32,0,0,-1,0x4f0,-1,-1,-1,0 
1,1,159,0,0,6459,.IADD3,6449,6450,4,2,1,0,0,0,6,0,3,0,-1,2,32,0,0,-1,0x290,-1,-1,-1,0 
1,1,160,0,0,6460,.IADD3,6449,6451,4,2,1,0,0,0,6,0,3,0,-1,2,32,0,0,-1,0x2a0,-1,-1,-1,0 
1,1,161,0,0,6468,.ISETP.GE.AND,6451,6459,4,2,0,0,0,0,6,0,3,0,-1,2,32,0,0,-1,0x2b0,-1,-1,-1,0 
1,1,162,0,0,6469,.ISETP.LE.AND,6451,6460,4,2,0,0,0,0,6,0,3,0,-1,2,32,0,0,-1,0x2c0,-1,-1,-1,0 
1,1,163,0,0,6469,.PLOP3.LUT,6460,6461,4,0,0,0,0,0,1,0,3,0,-1,2,32,0,0,-1,0x2d0,-1,-1,-1,0 
1,1,164,0,0,6471,.IMAD.MOV.U32,6460,6462,4,2,1,0,0,0,6,0,3,0,-1,2,27,0,0,-1,0x2e0,-1,-1,-1,0 
1,1,165,0,0,6480,.IMAD.WIDE,6462,6471,4,2,1,0,0,0,6,0,3,0,-1,2,27,0,0,-1,0x2f0,-1,-1,-1,0 
1,1,167,0,0,6490,.ISETP.GE.AND,6480,6481,4,2,0,0,0,0,6,0,3,0,-1,2,27,0,0,-1,0x310,-1,-1,-1,0 
1,1,168,0,0,6491,.IMAD.SHL.U32,6480,6482,4,2,1,0,0,0,6,0,3,0,-1,2,27,0,0,-1,0x320,-1,-1,-1,0 
1,1,169,0,0,6492,.IADD3,6482,6483,4,2,1,0,0,0,6,0,3,0,-1,2,27,0,0,-1,0x330,-1,-1,-1,0 
1,1,170,0,0,6501,.SEL,6482,6492,4,2,1,0,0,0,1,0,3,0,-1,2,27,0,0,-1,0x340,-1,-1,-1,0 
1,1,171,0,0,6502,.IMAD.MOV.U32,6492,6493,4,2,1,0,0,0,6,0,3,0,-1,2,32,0,0,-1,0x350,-1,-1,-1,0 
1,1,173,0,0,6510,.IMAD.SHL.U32,6494,6501,4,2,1,0,0,0,6,0,3,0,-1,2,27,0,0,-1,0x370,-1,-1,-1,0 
1,1,172,0,0,6519,.LDS.U,6492,6494,1,1,1,1,0,4,8,0,6,0,-1,1,27,0,0,-1,0x360,-1,-1,-1,0 
1,1,174,0,0,6526,.LDS.U,6494,6502,1,1,1,1,0,4,8,0,6,0,-1,1,27,0,0,-1,0x380,-1,-1,-1,0 
1,1,175,0,0,6534,.LDS.U,6502,6510,1,1,1,1,0,4,8,0,6,0,-1,1,27,0,0,-1,0x390,-1,-1,-1,0 
1,1,176,0,0,6535,.ISETP.LT.AND,6502,6526,4,2,0,0,0,0,6,0,3,0,-1,2,27,0,0,-1,0x3a0,-1,-1,-1,0 
1,1,177,0,0,6536,.SEL,6526,6527,4,2,1,0,0,0,1,0,3,0,-1,2,27,0,0,-1,0x3b0,-1,-1,-1,0 
1,1,178,0,0,6545,.ISETP.LT.AND,6526,6536,4,2,0,0,0,0,6,0,3,0,-1,2,27,0,0,-1,0x3c0,-1,-1,-1,0 
1,1,179,0,0,6546,.SEL,6536,6537,4,2,1,0,0,0,1,0,3,0,-1,2,27,0,0,-1,0x3d0,-1,-1,-1,0 
1,1,180,0,0,6547,.ISETP.NE.AND,6536,6538,4,2,0,0,0,0,6,0,3,0,-1,2,32,0,0,-1,0x3e0,-1,-1,-1,0 
1,1,166,0,0,6674,.LDG.E.SYS,6462,6480,1,1,1,1,0,4,8,0,6,0,-1,1,27,0,0,-1,0x300,-1,-1,-1,1 
1,1,181,0,0,6683,.IMAD.IADD,6538,6674,4,2,1,0,0,0,6,0,3,0,-1,2,27,0,0,-1,0x3f0,-1,-1,-1,0 
1,1,182,0,0,6684,.PRMT,6538,6675,4,2,1,0,0,0,1,0,3,0,-1,2,32,0,0,-1,0x400,-1,-1,-1,0 
1,1,184,0,0,6689,.STS,6675,6685,1,2,0,0,1,4,11,0,6,0,-1,1,27,0,0,-1,0x420,-1,-1,-1,0 
1,1,186,0,0,6692,.BAR.SYNC,6685,6687,1,0,0,0,0,0,13,0,3,0,-1,1,32,0,0,-1,0x440,1,-1,-1,0 
1,1,183,0,0,6693,.PRMT,6675,6684,4,2,1,0,0,0,1,0,3,0,-1,2,27,0,0,-1,0x410,-1,-1,-1,0 
1,1,185,0,0,6694,.NOP,6685,6686,4,0,0,0,0,0,1,0,3,0,-1,2,32,0,0,-1,0x430,-1,-1,-1,0 
1,1,187,0,0,6696,.BRA,6687,6688,4,0,0,0,0,0,100,0,7,0,-1,4,0,0,0,-1,0x450,-1,-1,-1,0 
1,1,188,0,0,6702,.PRMT,6687,6693,4,2,1,0,0,0,1,0,3,0,-1,2,32,0,0,-1,0x460,-1,-1,-1,0 
1,1,189,0,0,6703,.IADD3,6693,6694,4,2,1,0,0,0,6,0,3,0,-1,2,32,0,0,-1,0x470,-1,-1,-1,0 
1,1,190,0,0,6711,.ISETP.NE.AND,6693,6702,4,2,0,0,0,0,6,0,3,0,-1,2,32,0,0,-1,0x480,-1,-1,-1,0 
1,1,191,0,0,6712,.IMAD.MOV.U32,6702,6703,4,3,1,0,0,0,6,0,3,0,-1,2,32,0,0,-1,0x490,-1,-1,-1,0 
1,1,192,0,0,6713,.IADD3,6702,6704,4,2,1,0,0,0,6,0,3,0,-1,2,32,0,0,-1,0x4a0,-1,-1,-1,0 
1,1,193,0,0,6714,.IMAD.SHL.U32,6704,6705,4,2,1,0,0,0,6,0,3,0,-1,2,27,0,0,-1,0x4b0,-1,-1,-1,0 
1,1,194,0,0,6738,.LDS.U,6704,6714,1,1,1,1,0,4,8,0,6,0,-1,1,27,0,0,-1,0x4c0,-1,-1,-1,0 
1,1,195,0,0,6741,.STS,6714,6738,1,2,0,0,1,4,11,0,6,0,-1,1,27,0,0,-1,0x4d0,-1,-1,-1,0 
1,1,196,0,0,6748,.ISETP.GE.AND,6714,6739,4,1,0,0,0,0,6,0,3,0,-1,2,32,0,0,-1,0x4e0,-1,-1,-1,0 
1,1,197,0,0,6748,.BRA,6739,6740,4,0,0,0,0,0,100,0,7,0,-1,4,32,0,0,-1,0x4f0,-1,-1,-1,0 
1,1,198,0,0,6750,.IADD3,6739,6741,4,2,1,0,0,0,6,0,3,0,-1,2,32,0,0,-1,0x290,-1,-1,-1,0 
1,1,199,0,0,6751,.IADD3,6741,6742,4,2,1,0,0,0,6,0,3,0,-1,2,32,0,0,-1,0x2a0,-1,-1,-1,0 
1,1,200,0,0,6759,.ISETP.GE.AND,6741,6750,4,2,0,0,0,0,6,0,3,0,-1,2,32,0,0,-1,0x2b0,-1,-1,-1,0 
1,1,201,0,0,6760,.ISETP.LE.AND,6750,6751,4,2,0,0,0,0,6,0,3,0,-1,2,32,0,0,-1,0x2c0,-1,-1,-1,0 
1,1,202,0,0,6760,.PLOP3.LUT,6750,6752,4,0,0,0,0,0,1,0,3,0,-1,2,32,0,0,-1,0x2d0,-1,-1,-1,0 
1,1,203,0,0,6762,.IMAD.MOV.U32,6752,6753,4,2,1,0,0,0,6,0,3,0,-1,2,27,0,0,-1,0x2e0,-1,-1,-1,0 
1,1,204,0,0,6771,.IMAD.WIDE,6752,6762,4,2,1,0,0,0,6,0,3,0,-1,2,27,0,0,-1,0x2f0,-1,-1,-1,0 
1,1,206,0,0,6781,.ISETP.GE.AND,6762,6772,4,2,0,0,0,0,6,0,3,0,-1,2,27,0,0,-1,0x310,-1,-1,-1,0 
1,1,207,0,0,6782,.IMAD.SHL.U32,6772,6773,4,2,1,0,0,0,6,0,3,0,-1,2,27,0,0,-1,0x320,-1,-1,-1,0 
1,1,208,0,0,6783,.IADD3,6772,6774,4,2,1,0,0,0,6,0,3,0,-1,2,27,0,0,-1,0x330,-1,-1,-1,0 
1,1,209,0,0,6792,.SEL,6774,6783,4,2,1,0,0,0,1,0,3,0,-1,2,27,0,0,-1,0x340,-1,-1,-1,0 
1,1,210,0,0,6793,.IMAD.MOV.U32,6774,6784,4,2,1,0,0,0,6,0,3,0,-1,2,32,0,0,-1,0x350,-1,-1,-1,0 
1,1,212,0,0,6801,.IMAD.SHL.U32,6784,6792,4,2,1,0,0,0,6,0,3,0,-1,2,27,0,0,-1,0x370,-1,-1,-1,0 
1,1,211,0,0,6810,.LDS.U,6784,6785,1,1,1,1,0,4,8,0,6,0,-1,1,27,0,0,-1,0x360,-1,-1,-1,0 
1,1,213,0,0,6817,.LDS.U,6792,6793,1,1,1,1,0,4,8,0,6,0,-1,1,27,0,0,-1,0x380,-1,-1,-1,0 
1,1,214,0,0,6825,.LDS.U,6792,6801,1,1,1,1,0,4,8,0,6,0,-1,1,27,0,0,-1,0x390,-1,-1,-1,0 
1,1,215,0,0,6826,.ISETP.LT.AND,6801,6817,4,2,0,0,0,0,6,0,3,0,-1,2,27,0,0,-1,0x3a0,-1,-1,-1,0 
1,1,216,0,0,6827,.SEL,6801,6818,4,2,1,0,0,0,1,0,3,0,-1,2,27,0,0,-1,0x3b0,-1,-1,-1,0 
1,1,217,0,0,6836,.ISETP.LT.AND,6818,6827,4,2,0,0,0,0,6,0,3,0,-1,2,27,0,0,-1,0x3c0,-1,-1,-1,0 
1,1,218,0,0,6837,.SEL,6818,6828,4,2,1,0,0,0,1,0,3,0,-1,2,27,0,0,-1,0x3d0,-1,-1,-1,0 
1,1,219,0,0,6838,.ISETP.NE.AND,6828,6829,4,2,0,0,0,0,6,0,3,0,-1,2,32,0,0,-1,0x3e0,-1,-1,-1,0 
1,1,205,0,0,6965,.LDG.E.SYS,6762,6771,1,1,1,1,0,4,8,0,6,0,-1,1,27,0,0,-1,0x300,-1,-1,-1,1 
1,1,220,0,0,6974,.IMAD.IADD,6828,6965,4,2,1,0,0,0,6,0,3,0,-1,2,27,0,0,-1,0x3f0,-1,-1,-1,0 
1,1,221,0,0,6975,.PRMT,6965,6966,4,2,1,0,0,0,1,0,3,0,-1,2,32,0,0,-1,0x400,-1,-1,-1,0 
1,1,223,0,0,6980,.STS,6975,6976,1,2,0,0,1,4,11,0,6,0,-1,1,27,0,0,-1,0x420,-1,-1,-1,0 
1,1,225,0,0,6983,.BAR.SYNC,6977,6978,1,0,0,0,0,0,13,0,3,0,-1,1,32,0,0,-1,0x440,1,-1,-1,0 
1,1,222,0,0,6984,.PRMT,6965,6975,4,2,1,0,0,0,1,0,3,0,-1,2,27,0,0,-1,0x410,-1,-1,-1,0 
1,1,224,0,0,6985,.NOP,6975,6977,4,0,0,0,0,0,1,0,3,0,-1,2,32,0,0,-1,0x430,-1,-1,-1,0 
1,1,226,0,0,6987,.BRA,6977,6979,4,0,0,0,0,0,100,0,7,0,-1,4,32,0,0,-1,0x450,-1,-1,-1,0 
1,1,228,0,0,6990,.EXIT,6979,6985,1,0,0,0,0,0,17,0,3,0,-1,1,5,0,0,-1,0x510,-1,-1,-1,0 
1,1,227,0,0,6994,.LOP3.LUT,6979,6984,4,3,0,0,0,0,6,0,3,0,-1,2,32,0,0,-1,0x500,-1,-1,-1,0 
1,1,229,0,0,6995,.IMAD.SHL.U32,6985,6986,4,2,1,0,0,0,6,0,3,0,-1,2,27,0,0,-1,0x520,-1,-1,-1,0 
1,1,230,0,0,6996,.IMAD.MOV.U32,6985,6987,4,2,1,0,0,0,6,0,3,0,-1,2,27,0,0,-1,0x530,-1,-1,-1,0 
1,1,231,0,0,7005,.IMAD.WIDE,6987,6996,4,2,1,0,0,0,6,0,3,0,-1,2,27,0,0,-1,0x540,-1,-1,-1,0 
1,1,232,0,0,7021,.LDS.U,6987,6997,1,1,1,1,0,4,8,0,6,0,-1,1,27,0,0,-1,0x550,-1,-1,-1,0 
1,1,234,0,0,7027,.EXIT,6997,7022,1,0,0,0,0,0,17,0,3,0,-1,1,27,0,0,-1,0x570,-1,-1,-1,0 
1,1,233,0,0,7027,.STG.E.SYS,6997,7021,1,2,0,0,1,4,11,0,6,0,-1,1,27,0,0,-1,0x560,-1,-1,-1,1 
Destroy streams for kernel 1: size 0


gpgpu_simulation_time = 0 days, 0 hrs, 0 min, 1 sec (1 sec)
gpgpu_simulation_rate = 6704 (inst/sec)
gpgpu_simulation_rate = 7215 (cycle/sec)
gpgpu_silicon_slowdown = 156895x
-kernel name = _Z14dynproc_kerneliPiS_S_iiii
-kernel id = 2
-grid dim = (5,1,1)
-block dim = (256,1,1)
-shmem = 2048
-nregs = 18
-binary version = 70
-cuda stream id = 0
-shmem base_addr = 0x00007f18c2000000
-local mem base_addr = 0x00007f18c4000000
-nvbit version = 1.4
-accelsim tracer version = 3
launching kernel command : /scratch/santosh/gpu_simulation/accel-sim-framework/traces/rodinia_2.0-ft/11.0/pathfinder-rodinia-2.0-ft/1000_20_5___data_result_1000_20_5_txt/traces/kernel-2.traceg
GPGPU-Sim uArch: Shader 0 bind to kernel 2 '_Z14dynproc_kerneliPiS_S_iiii'
GPGPU-Sim: Reconfigure L1 cache to 120KB
GPGPUsim: cta_size: 32
ctaid: 0, start warp: 0, end_warp: 1, start_thread: 0, end_thread: 32
thread block = 0,0,0
warp id: 0
warp id: 1
warp_id: 0, insts: 234
1,2,235,0,0,12226,.IMAD.MOV.U32,12216,12217,4,2,1,0,0,0,6,0,3,0,-1,2,32,0,0,-1,0,-1,-1,-1,0 
1,2,237,0,0,12227,.S2R,12218,12219,4,0,1,0,0,0,1,0,3,0,-1,2,32,0,0,-1,0x20,-1,-1,-1,0 
1,2,236,0,0,12228,.SHFL.IDX,12216,12218,4,4,0,0,0,0,1,0,3,0,-1,2,0,0,0,-1,0x10,-1,-1,-1,0 
1,2,238,0,0,12229,.IMAD.MOV,12218,12220,4,2,1,0,0,0,6,0,3,0,-1,2,32,0,0,-1,0x30,-1,-1,-1,0 
1,2,239,0,0,12230,.IMAD.MOV.U32,12220,12221,4,2,1,0,0,0,6,0,3,0,-1,2,32,0,0,-1,0x40,-1,-1,-1,0 
1,2,240,0,0,12230,.S2R,12220,12222,4,0,1,0,0,0,1,0,3,0,-1,2,32,0,0,-1,0x50,-1,-1,-1,0 
1,2,241,0,0,12238,.LEA,12222,12229,4,1,1,0,0,0,6,0,3,0,-1,2,32,0,0,-1,0x60,-1,-1,-1,0 
1,2,242,0,0,12239,.IADD3,12222,12230,4,2,1,0,0,0,6,0,3,0,-1,2,32,0,0,-1,0x70,-1,-1,-1,0 
1,2,243,0,0,12247,.IMAD,12230,12238,4,2,1,0,0,0,6,0,3,0,-1,2,32,0,0,-1,0x80,-1,-1,-1,0 
1,2,244,0,0,12256,.IMAD.IADD,12230,12247,4,2,1,0,0,0,6,0,3,0,-1,2,32,0,0,-1,0x90,-1,-1,-1,0 
1,2,245,0,0,12265,.ISETP.GT.AND,12247,12256,4,2,0,0,0,0,6,0,3,0,-1,2,32,0,0,-1,0xa0,-1,-1,-1,0 
1,2,246,0,0,12266,.ISETP.GT.AND,12247,12257,4,1,0,0,0,0,6,0,3,0,-1,2,32,0,0,-1,0xb0,-1,-1,-1,0 
1,2,247,0,0,12267,.IMAD.MOV.U32,12257,12258,4,2,1,0,0,0,6,0,3,0,-1,2,27,0,0,-1,0xc0,-1,-1,-1,0 
1,2,248,0,0,12276,.IMAD.WIDE,12257,12267,4,2,1,0,0,0,6,0,3,0,-1,2,27,0,0,-1,0xd0,-1,-1,-1,0 
1,2,250,0,0,12286,.IMAD.SHL.U32,12267,12277,4,2,1,0,0,0,6,0,3,0,-1,2,27,0,0,-1,0xf0,-1,-1,-1,0 
1,2,251,0,0,12287,.SHF.R.S32.HI,12277,12278,4,2,1,0,0,0,6,0,3,0,-1,2,32,0,0,-1,0x100,-1,-1,-1,0 
1,2,252,0,0,12288,.IMAD.MOV.U32,12277,12279,4,2,1,0,0,0,6,0,3,0,-1,2,32,0,0,-1,0x110,-1,-1,-1,0 
1,2,253,0,0,12290,.IMAD.MOV,12279,12280,4,3,1,0,0,0,6,0,3,0,-1,2,32,0,0,-1,0x120,-1,-1,-1,0 
1,2,254,0,0,12299,.LOP3.LUT,12279,12290,4,3,1,0,0,0,6,0,3,0,-1,2,32,0,0,-1,0x130,-1,-1,-1,0 
1,2,249,0,0,12471,.LDG.E.SYS,12267,12276,1,1,1,1,0,4,8,0,6,0,-1,1,27,0,0,-1,0xe0,-1,-1,-1,1 
1,2,255,0,0,12474,.STS,12290,12471,1,2,0,0,1,4,11,0,6,0,-1,1,27,0,0,-1,0x140,-1,-1,-1,0 
1,2,256,0,0,12481,.ISETP.LE.AND,12290,12472,4,1,0,0,0,0,6,0,3,0,-1,2,32,0,0,-1,0x150,-1,-1,-1,0 
1,2,257,0,0,12481,.BRA,12472,12473,4,0,0,0,0,0,100,0,7,0,-1,4,0,0,0,-1,0x160,-1,-1,-1,0 
1,2,258,0,0,12483,.IADD3,12472,12474,4,2,1,0,0,0,6,0,3,0,-1,2,32,0,0,-1,0x170,-1,-1,-1,0 
1,2,259,0,0,12484,.IMAD.MOV.U32,12474,12475,4,2,1,0,0,0,6,0,3,0,-1,2,32,0,0,-1,0x180,-1,-1,-1,0 
1,2,260,0,0,12485,.IADD3,12474,12476,4,2,1,0,0,0,6,0,3,0,-1,2,32,0,0,-1,0x190,-1,-1,-1,0 
1,2,261,0,0,12492,.IADD3,12476,12483,4,2,1,0,0,0,6,0,3,0,-1,2,32,0,0,-1,0x1a0,-1,-1,-1,0 
1,2,262,0,0,12494,.ISETP.GT.AND,12476,12485,4,2,0,0,0,0,6,0,3,0,-1,2,32,0,0,-1,0x1b0,-1,-1,-1,0 
1,2,263,0,0,12495,.IADD3,12485,12486,4,2,1,0,0,0,6,0,3,0,-1,2,32,0,0,-1,0x1c0,-1,-1,-1,0 
1,2,264,0,0,12501,.IADD3,12485,12492,4,2,1,0,0,0,6,0,3,0,-1,2,32,0,0,-1,0x1d0,-1,-1,-1,0 
1,2,265,0,0,12502,.IMAD,12492,12493,4,2,1,0,0,0,6,0,3,0,-1,2,32,0,0,-1,0x1e0,-1,-1,-1,0 
1,2,266,0,0,12504,.ISETP.LT.AND,12492,12495,4,2,0,0,0,0,6,0,3,0,-1,2,32,0,0,-1,0x1f0,-1,-1,-1,0 
1,2,267,0,0,12505,.ISETP.GE.AND,12495,12496,4,2,0,0,0,0,6,0,3,0,-1,2,32,0,0,-1,0x200,-1,-1,-1,0 
1,2,268,0,0,12511,.IMAD,12495,12502,4,3,1,0,0,0,6,0,3,0,-1,2,32,0,0,-1,0x210,-1,-1,-1,0 
1,2,269,0,0,12512,.SEL,12502,12503,4,2,1,0,0,0,1,0,3,0,-1,2,32,0,0,-1,0x220,-1,-1,-1,0 
1,2,270,0,0,12514,.IMAD.MOV.U32,12502,12504,4,3,1,0,0,0,6,0,3,0,-1,2,32,0,0,-1,0x230,-1,-1,-1,0 
1,2,271,0,0,12514,.SEL,12504,12505,4,1,1,0,0,0,1,0,3,0,-1,2,32,0,0,-1,0x240,-1,-1,-1,0 
1,2,272,0,0,12515,.IADD3,12504,12506,4,2,1,0,0,0,6,0,3,0,-1,2,32,0,0,-1,0x250,-1,-1,-1,0 
1,2,273,0,0,12522,.IMAD.SHL.U32,12506,12512,4,2,1,0,0,0,6,0,3,0,-1,2,32,0,0,-1,0x260,-1,-1,-1,0 
1,2,274,0,0,12523,.ISETP.LE.AND,12506,12514,4,2,0,0,0,0,6,0,3,0,-1,2,32,0,0,-1,0x270,-1,-1,-1,0 
1,2,275,0,0,12524,.IADD3,12514,12515,4,2,1,0,0,0,6,0,3,0,-1,2,32,0,0,-1,0x280,-1,-1,-1,0 
1,2,276,0,0,12525,.IADD3,12514,12516,4,2,1,0,0,0,6,0,3,0,-1,2,32,0,0,-1,0x290,-1,-1,-1,0 
1,2,277,0,0,12526,.IADD3,12516,12517,4,2,1,0,0,0,6,0,3,0,-1,2,32,0,0,-1,0x2a0,-1,-1,-1,0 
1,2,278,0,0,12534,.ISETP.GE.AND,12516,12525,4,2,0,0,0,0,6,0,3,0,-1,2,32,0,0,-1,0x2b0,-1,-1,-1,0 
1,2,279,0,0,12535,.ISETP.LE.AND,12525,12526,4,2,0,0,0,0,6,0,3,0,-1,2,32,0,0,-1,0x2c0,-1,-1,-1,0 
1,2,280,0,0,12535,.PLOP3.LUT,12525,12527,4,0,0,0,0,0,1,0,3,0,-1,2,32,0,0,-1,0x2d0,-1,-1,-1,0 
1,2,281,0,0,12537,.IMAD.MOV.U32,12527,12528,4,2,1,0,0,0,6,0,3,0,-1,2,27,0,0,-1,0x2e0,-1,-1,-1,0 
1,2,282,0,0,12546,.IMAD.WIDE,12527,12537,4,2,1,0,0,0,6,0,3,0,-1,2,27,0,0,-1,0x2f0,-1,-1,-1,0 
1,2,284,0,0,12556,.ISETP.GE.AND,12537,12547,4,2,0,0,0,0,6,0,3,0,-1,2,27,0,0,-1,0x310,-1,-1,-1,0 
1,2,285,0,0,12557,.IMAD.SHL.U32,12547,12548,4,2,1,0,0,0,6,0,3,0,-1,2,27,0,0,-1,0x320,-1,-1,-1,0 
1,2,286,0,0,12558,.IADD3,12547,12549,4,2,1,0,0,0,6,0,3,0,-1,2,27,0,0,-1,0x330,-1,-1,-1,0 
1,2,287,0,0,12567,.SEL,12549,12558,4,2,1,0,0,0,1,0,3,0,-1,2,27,0,0,-1,0x340,-1,-1,-1,0 
1,2,288,0,0,12568,.IMAD.MOV.U32,12549,12559,4,2,1,0,0,0,6,0,3,0,-1,2,32,0,0,-1,0x350,-1,-1,-1,0 
1,2,290,0,0,12576,.IMAD.SHL.U32,12559,12567,4,2,1,0,0,0,6,0,3,0,-1,2,27,0,0,-1,0x370,-1,-1,-1,0 
1,2,289,0,0,12584,.LDS.U,12559,12560,1,1,1,1,0,4,8,0,6,0,-1,1,27,0,0,-1,0x360,-1,-1,-1,0 
1,2,291,0,0,12592,.LDS.U,12567,12568,1,1,1,1,0,4,8,0,6,0,-1,1,27,0,0,-1,0x380,-1,-1,-1,0 
1,2,292,0,0,12600,.LDS.U,12567,12576,1,1,1,1,0,4,8,0,6,0,-1,1,27,0,0,-1,0x390,-1,-1,-1,0 
1,2,293,0,0,12601,.ISETP.LT.AND,12576,12592,4,2,0,0,0,0,6,0,3,0,-1,2,27,0,0,-1,0x3a0,-1,-1,-1,0 
1,2,294,0,0,12602,.SEL,12576,12593,4,2,1,0,0,0,1,0,3,0,-1,2,27,0,0,-1,0x3b0,-1,-1,-1,0 
1,2,295,0,0,12611,.ISETP.LT.AND,12593,12602,4,2,0,0,0,0,6,0,3,0,-1,2,27,0,0,-1,0x3c0,-1,-1,-1,0 
1,2,296,0,0,12612,.SEL,12593,12603,4,2,1,0,0,0,1,0,3,0,-1,2,27,0,0,-1,0x3d0,-1,-1,-1,0 
1,2,297,0,0,12613,.ISETP.NE.AND,12603,12604,4,2,0,0,0,0,6,0,3,0,-1,2,32,0,0,-1,0x3e0,-1,-1,-1,0 
1,2,283,0,0,12740,.LDG.E.SYS,12537,12546,1,1,1,1,0,4,8,0,6,0,-1,1,27,0,0,-1,0x300,-1,-1,-1,1 
1,2,298,0,0,12749,.IMAD.IADD,12603,12740,4,2,1,0,0,0,6,0,3,0,-1,2,27,0,0,-1,0x3f0,-1,-1,-1,0 
1,2,299,0,0,12750,.PRMT,12740,12741,4,2,1,0,0,0,1,0,3,0,-1,2,32,0,0,-1,0x400,-1,-1,-1,0 
1,2,301,0,0,12754,.STS,12750,12751,1,2,0,0,1,4,11,0,6,0,-1,1,27,0,0,-1,0x420,-1,-1,-1,0 
1,2,303,0,0,12758,.BAR.SYNC,12752,12753,1,0,0,0,0,0,13,0,3,0,-1,1,32,0,0,-1,0x440,1,-1,-1,0 
1,2,300,0,0,12759,.PRMT,12740,12750,4,2,1,0,0,0,1,0,3,0,-1,2,27,0,0,-1,0x410,-1,-1,-1,0 
1,2,302,0,0,12760,.NOP,12750,12752,4,0,0,0,0,0,1,0,3,0,-1,2,32,0,0,-1,0x430,-1,-1,-1,0 
1,2,304,0,0,12762,.BRA,12752,12754,4,0,0,0,0,0,100,0,7,0,-1,4,0,0,0,-1,0x450,-1,-1,-1,0 
1,2,305,0,0,12768,.PRMT,12754,12759,4,2,1,0,0,0,1,0,3,0,-1,2,32,0,0,-1,0x460,-1,-1,-1,0 
1,2,306,0,0,12769,.IADD3,12754,12760,4,2,1,0,0,0,6,0,3,0,-1,2,32,0,0,-1,0x470,-1,-1,-1,0 
1,2,307,0,0,12777,.ISETP.NE.AND,12760,12768,4,2,0,0,0,0,6,0,3,0,-1,2,32,0,0,-1,0x480,-1,-1,-1,0 
1,2,308,0,0,12778,.IMAD.MOV.U32,12760,12769,4,3,1,0,0,0,6,0,3,0,-1,2,32,0,0,-1,0x490,-1,-1,-1,0 
1,2,309,0,0,12779,.IADD3,12769,12770,4,2,1,0,0,0,6,0,3,0,-1,2,32,0,0,-1,0x4a0,-1,-1,-1,0 
1,2,310,0,0,12780,.IMAD.SHL.U32,12769,12771,4,2,1,0,0,0,6,0,3,0,-1,2,27,0,0,-1,0x4b0,-1,-1,-1,0 
1,2,311,0,0,12804,.LDS.U,12771,12780,1,1,1,1,0,4,8,0,6,0,-1,1,27,0,0,-1,0x4c0,-1,-1,-1,0 
1,2,312,0,0,12807,.STS,12771,12804,1,2,0,0,1,4,11,0,6,0,-1,1,27,0,0,-1,0x4d0,-1,-1,-1,0 
1,2,313,0,0,12814,.ISETP.GE.AND,12804,12805,4,1,0,0,0,0,6,0,3,0,-1,2,32,0,0,-1,0x4e0,-1,-1,-1,0 
1,2,314,0,0,12814,.BRA,12804,12806,4,0,0,0,0,0,100,0,7,0,-1,4,32,0,0,-1,0x4f0,-1,-1,-1,0 
1,2,315,0,0,12816,.IADD3,12806,12807,4,2,1,0,0,0,6,0,3,0,-1,2,32,0,0,-1,0x290,-1,-1,-1,0 
1,2,316,0,0,12817,.IADD3,12806,12808,4,2,1,0,0,0,6,0,3,0,-1,2,32,0,0,-1,0x2a0,-1,-1,-1,0 
1,2,317,0,0,12825,.ISETP.GE.AND,12808,12816,4,2,0,0,0,0,6,0,3,0,-1,2,32,0,0,-1,0x2b0,-1,-1,-1,0 
1,2,318,0,0,12826,.ISETP.LE.AND,12808,12817,4,2,0,0,0,0,6,0,3,0,-1,2,32,0,0,-1,0x2c0,-1,-1,-1,0 
1,2,319,0,0,12826,.PLOP3.LUT,12817,12818,4,0,0,0,0,0,1,0,3,0,-1,2,32,0,0,-1,0x2d0,-1,-1,-1,0 
1,2,320,0,0,12828,.IMAD.MOV.U32,12817,12819,4,2,1,0,0,0,6,0,3,0,-1,2,27,0,0,-1,0x2e0,-1,-1,-1,0 
1,2,321,0,0,12837,.IMAD.WIDE,12819,12828,4,2,1,0,0,0,6,0,3,0,-1,2,27,0,0,-1,0x2f0,-1,-1,-1,0 
1,2,323,0,0,12847,.ISETP.GE.AND,12837,12838,4,2,0,0,0,0,6,0,3,0,-1,2,27,0,0,-1,0x310,-1,-1,-1,0 
1,2,324,0,0,12848,.IMAD.SHL.U32,12837,12839,4,2,1,0,0,0,6,0,3,0,-1,2,27,0,0,-1,0x320,-1,-1,-1,0 
1,2,325,0,0,12849,.IADD3,12839,12840,4,2,1,0,0,0,6,0,3,0,-1,2,27,0,0,-1,0x330,-1,-1,-1,0 
1,2,326,0,0,12858,.SEL,12839,12849,4,2,1,0,0,0,1,0,3,0,-1,2,27,0,0,-1,0x340,-1,-1,-1,0 
1,2,327,0,0,12859,.IMAD.MOV.U32,12849,12850,4,2,1,0,0,0,6,0,3,0,-1,2,32,0,0,-1,0x350,-1,-1,-1,0 
1,2,329,0,0,12867,.IMAD.SHL.U32,12851,12858,4,2,1,0,0,0,6,0,3,0,-1,2,27,0,0,-1,0x370,-1,-1,-1,0 
1,2,328,0,0,12875,.LDS.U,12849,12851,1,1,1,1,0,4,8,0,6,0,-1,1,27,0,0,-1,0x360,-1,-1,-1,0 
1,2,330,0,0,12883,.LDS.U,12851,12859,1,1,1,1,0,4,8,0,6,0,-1,1,27,0,0,-1,0x380,-1,-1,-1,0 
1,2,331,0,0,12891,.LDS.U,12859,12867,1,1,1,1,0,4,8,0,6,0,-1,1,27,0,0,-1,0x390,-1,-1,-1,0 
1,2,332,0,0,12892,.ISETP.LT.AND,12859,12883,4,2,0,0,0,0,6,0,3,0,-1,2,27,0,0,-1,0x3a0,-1,-1,-1,0 
1,2,333,0,0,12893,.SEL,12883,12884,4,2,1,0,0,0,1,0,3,0,-1,2,27,0,0,-1,0x3b0,-1,-1,-1,0 
1,2,334,0,0,12902,.ISETP.LT.AND,12883,12893,4,2,0,0,0,0,6,0,3,0,-1,2,27,0,0,-1,0x3c0,-1,-1,-1,0 
1,2,335,0,0,12903,.SEL,12893,12894,4,2,1,0,0,0,1,0,3,0,-1,2,27,0,0,-1,0x3d0,-1,-1,-1,0 
1,2,336,0,0,12904,.ISETP.NE.AND,12893,12895,4,2,0,0,0,0,6,0,3,0,-1,2,32,0,0,-1,0x3e0,-1,-1,-1,0 
1,2,322,0,0,13031,.LDG.E.SYS,12819,12837,1,1,1,1,0,4,8,0,6,0,-1,1,27,0,0,-1,0x300,-1,-1,-1,1 
1,2,337,0,0,13040,.IMAD.IADD,12895,13031,4,2,1,0,0,0,6,0,3,0,-1,2,27,0,0,-1,0x3f0,-1,-1,-1,0 
1,2,338,0,0,13041,.PRMT,12895,13032,4,2,1,0,0,0,1,0,3,0,-1,2,32,0,0,-1,0x400,-1,-1,-1,0 
1,2,340,0,0,13045,.STS,13032,13042,1,2,0,0,1,4,11,0,6,0,-1,1,27,0,0,-1,0x420,-1,-1,-1,0 
1,2,342,0,0,13049,.BAR.SYNC,13042,13044,1,0,0,0,0,0,13,0,3,0,-1,1,32,0,0,-1,0x440,1,-1,-1,0 
1,2,339,0,0,13050,.PRMT,13032,13041,4,2,1,0,0,0,1,0,3,0,-1,2,27,0,0,-1,0x410,-1,-1,-1,0 
1,2,341,0,0,13051,.NOP,13042,13043,4,0,0,0,0,0,1,0,3,0,-1,2,32,0,0,-1,0x430,-1,-1,-1,0 
1,2,343,0,0,13053,.BRA,13044,13045,4,0,0,0,0,0,100,0,7,0,-1,4,0,0,0,-1,0x450,-1,-1,-1,0 
1,2,344,0,0,13059,.PRMT,13044,13050,4,2,1,0,0,0,1,0,3,0,-1,2,32,0,0,-1,0x460,-1,-1,-1,0 
1,2,345,0,0,13060,.IADD3,13050,13051,4,2,1,0,0,0,6,0,3,0,-1,2,32,0,0,-1,0x470,-1,-1,-1,0 
1,2,346,0,0,13068,.ISETP.NE.AND,13050,13059,4,2,0,0,0,0,6,0,3,0,-1,2,32,0,0,-1,0x480,-1,-1,-1,0 
1,2,347,0,0,13069,.IMAD.MOV.U32,13059,13060,4,3,1,0,0,0,6,0,3,0,-1,2,32,0,0,-1,0x490,-1,-1,-1,0 
1,2,348,0,0,13070,.IADD3,13059,13061,4,2,1,0,0,0,6,0,3,0,-1,2,32,0,0,-1,0x4a0,-1,-1,-1,0 
1,2,349,0,0,13071,.IMAD.SHL.U32,13061,13062,4,2,1,0,0,0,6,0,3,0,-1,2,27,0,0,-1,0x4b0,-1,-1,-1,0 
1,2,350,0,0,13095,.LDS.U,13061,13071,1,1,1,1,0,4,8,0,6,0,-1,1,27,0,0,-1,0x4c0,-1,-1,-1,0 
1,2,351,0,0,13098,.STS,13071,13095,1,2,0,0,1,4,11,0,6,0,-1,1,27,0,0,-1,0x4d0,-1,-1,-1,0 
1,2,352,0,0,13105,.ISETP.GE.AND,13071,13096,4,1,0,0,0,0,6,0,3,0,-1,2,32,0,0,-1,0x4e0,-1,-1,-1,0 
1,2,353,0,0,13105,.BRA,13096,13097,4,0,0,0,0,0,100,0,7,0,-1,4,32,0,0,-1,0x4f0,-1,-1,-1,0 
1,2,354,0,0,13107,.IADD3,13096,13098,4,2,1,0,0,0,6,0,3,0,-1,2,32,0,0,-1,0x290,-1,-1,-1,0 
1,2,355,0,0,13108,.IADD3,13098,13099,4,2,1,0,0,0,6,0,3,0,-1,2,32,0,0,-1,0x2a0,-1,-1,-1,0 
1,2,356,0,0,13116,.ISETP.GE.AND,13098,13107,4,2,0,0,0,0,6,0,3,0,-1,2,32,0,0,-1,0x2b0,-1,-1,-1,0 
1,2,357,0,0,13117,.ISETP.LE.AND,13107,13108,4,2,0,0,0,0,6,0,3,0,-1,2,32,0,0,-1,0x2c0,-1,-1,-1,0 
1,2,358,0,0,13117,.PLOP3.LUT,13107,13109,4,0,0,0,0,0,1,0,3,0,-1,2,32,0,0,-1,0x2d0,-1,-1,-1,0 
1,2,359,0,0,13119,.IMAD.MOV.U32,13109,13110,4,2,1,0,0,0,6,0,3,0,-1,2,27,0,0,-1,0x2e0,-1,-1,-1,0 
1,2,360,0,0,13128,.IMAD.WIDE,13109,13119,4,2,1,0,0,0,6,0,3,0,-1,2,27,0,0,-1,0x2f0,-1,-1,-1,0 
1,2,362,0,0,13138,.ISETP.GE.AND,13119,13129,4,2,0,0,0,0,6,0,3,0,-1,2,27,0,0,-1,0x310,-1,-1,-1,0 
1,2,363,0,0,13139,.IMAD.SHL.U32,13129,13130,4,2,1,0,0,0,6,0,3,0,-1,2,27,0,0,-1,0x320,-1,-1,-1,0 
1,2,364,0,0,13140,.IADD3,13129,13131,4,2,1,0,0,0,6,0,3,0,-1,2,27,0,0,-1,0x330,-1,-1,-1,0 
1,2,365,0,0,13149,.SEL,13131,13140,4,2,1,0,0,0,1,0,3,0,-1,2,27,0,0,-1,0x340,-1,-1,-1,0 
1,2,366,0,0,13150,.IMAD.MOV.U32,13131,13141,4,2,1,0,0,0,6,0,3,0,-1,2,32,0,0,-1,0x350,-1,-1,-1,0 
1,2,368,0,0,13158,.IMAD.SHL.U32,13141,13149,4,2,1,0,0,0,6,0,3,0,-1,2,27,0,0,-1,0x370,-1,-1,-1,0 
1,2,367,0,0,13166,.LDS.U,13141,13142,1,1,1,1,0,4,8,0,6,0,-1,1,27,0,0,-1,0x360,-1,-1,-1,0 
1,2,369,0,0,13174,.LDS.U,13149,13150,1,1,1,1,0,4,8,0,6,0,-1,1,27,0,0,-1,0x380,-1,-1,-1,0 
1,2,370,0,0,13182,.LDS.U,13149,13158,1,1,1,1,0,4,8,0,6,0,-1,1,27,0,0,-1,0x390,-1,-1,-1,0 
1,2,371,0,0,13183,.ISETP.LT.AND,13158,13174,4,2,0,0,0,0,6,0,3,0,-1,2,27,0,0,-1,0x3a0,-1,-1,-1,0 
1,2,372,0,0,13184,.SEL,13158,13175,4,2,1,0,0,0,1,0,3,0,-1,2,27,0,0,-1,0x3b0,-1,-1,-1,0 
1,2,373,0,0,13193,.ISETP.LT.AND,13175,13184,4,2,0,0,0,0,6,0,3,0,-1,2,27,0,0,-1,0x3c0,-1,-1,-1,0 
1,2,374,0,0,13194,.SEL,13175,13185,4,2,1,0,0,0,1,0,3,0,-1,2,27,0,0,-1,0x3d0,-1,-1,-1,0 
1,2,375,0,0,13195,.ISETP.NE.AND,13185,13186,4,2,0,0,0,0,6,0,3,0,-1,2,32,0,0,-1,0x3e0,-1,-1,-1,0 
1,2,361,0,0,13322,.LDG.E.SYS,13119,13128,1,1,1,1,0,4,8,0,6,0,-1,1,27,0,0,-1,0x300,-1,-1,-1,1 
1,2,376,0,0,13331,.IMAD.IADD,13185,13322,4,2,1,0,0,0,6,0,3,0,-1,2,27,0,0,-1,0x3f0,-1,-1,-1,0 
1,2,377,0,0,13332,.PRMT,13322,13323,4,2,1,0,0,0,1,0,3,0,-1,2,32,0,0,-1,0x400,-1,-1,-1,0 
1,2,379,0,0,13336,.STS,13332,13333,1,2,0,0,1,4,11,0,6,0,-1,1,27,0,0,-1,0x420,-1,-1,-1,0 
1,2,381,0,0,13340,.BAR.SYNC,13334,13335,1,0,0,0,0,0,13,0,3,0,-1,1,32,0,0,-1,0x440,1,-1,-1,0 
1,2,378,0,0,13341,.PRMT,13322,13332,4,2,1,0,0,0,1,0,3,0,-1,2,27,0,0,-1,0x410,-1,-1,-1,0 
1,2,380,0,0,13342,.NOP,13332,13334,4,0,0,0,0,0,1,0,3,0,-1,2,32,0,0,-1,0x430,-1,-1,-1,0 
1,2,382,0,0,13344,.BRA,13334,13336,4,0,0,0,0,0,100,0,7,0,-1,4,0,0,0,-1,0x450,-1,-1,-1,0 
1,2,383,0,0,13350,.PRMT,13336,13341,4,2,1,0,0,0,1,0,3,0,-1,2,32,0,0,-1,0x460,-1,-1,-1,0 
1,2,384,0,0,13351,.IADD3,13336,13342,4,2,1,0,0,0,6,0,3,0,-1,2,32,0,0,-1,0x470,-1,-1,-1,0 
1,2,385,0,0,13359,.ISETP.NE.AND,13342,13350,4,2,0,0,0,0,6,0,3,0,-1,2,32,0,0,-1,0x480,-1,-1,-1,0 
1,2,386,0,0,13360,.IMAD.MOV.U32,13342,13351,4,3,1,0,0,0,6,0,3,0,-1,2,32,0,0,-1,0x490,-1,-1,-1,0 
1,2,387,0,0,13361,.IADD3,13351,13352,4,2,1,0,0,0,6,0,3,0,-1,2,32,0,0,-1,0x4a0,-1,-1,-1,0 
1,2,388,0,0,13362,.IMAD.SHL.U32,13351,13353,4,2,1,0,0,0,6,0,3,0,-1,2,27,0,0,-1,0x4b0,-1,-1,-1,0 
1,2,389,0,0,13386,.LDS.U,13353,13362,1,1,1,1,0,4,8,0,6,0,-1,1,27,0,0,-1,0x4c0,-1,-1,-1,0 
1,2,390,0,0,13389,.STS,13353,13386,1,2,0,0,1,4,11,0,6,0,-1,1,27,0,0,-1,0x4d0,-1,-1,-1,0 
1,2,391,0,0,13396,.ISETP.GE.AND,13386,13387,4,1,0,0,0,0,6,0,3,0,-1,2,32,0,0,-1,0x4e0,-1,-1,-1,0 
1,2,392,0,0,13396,.BRA,13386,13388,4,0,0,0,0,0,100,0,7,0,-1,4,32,0,0,-1,0x4f0,-1,-1,-1,0 
1,2,393,0,0,13398,.IADD3,13388,13389,4,2,1,0,0,0,6,0,3,0,-1,2,32,0,0,-1,0x290,-1,-1,-1,0 
1,2,394,0,0,13399,.IADD3,13388,13390,4,2,1,0,0,0,6,0,3,0,-1,2,32,0,0,-1,0x2a0,-1,-1,-1,0 
1,2,395,0,0,13407,.ISETP.GE.AND,13390,13398,4,2,0,0,0,0,6,0,3,0,-1,2,32,0,0,-1,0x2b0,-1,-1,-1,0 
1,2,396,0,0,13408,.ISETP.LE.AND,13390,13399,4,2,0,0,0,0,6,0,3,0,-1,2,32,0,0,-1,0x2c0,-1,-1,-1,0 
1,2,397,0,0,13408,.PLOP3.LUT,13399,13400,4,0,0,0,0,0,1,0,3,0,-1,2,32,0,0,-1,0x2d0,-1,-1,-1,0 
1,2,398,0,0,13410,.IMAD.MOV.U32,13399,13401,4,2,1,0,0,0,6,0,3,0,-1,2,27,0,0,-1,0x2e0,-1,-1,-1,0 
1,2,399,0,0,13419,.IMAD.WIDE,13401,13410,4,2,1,0,0,0,6,0,3,0,-1,2,27,0,0,-1,0x2f0,-1,-1,-1,0 
1,2,401,0,0,13429,.ISETP.GE.AND,13419,13420,4,2,0,0,0,0,6,0,3,0,-1,2,27,0,0,-1,0x310,-1,-1,-1,0 
1,2,402,0,0,13430,.IMAD.SHL.U32,13419,13421,4,2,1,0,0,0,6,0,3,0,-1,2,27,0,0,-1,0x320,-1,-1,-1,0 
1,2,403,0,0,13431,.IADD3,13421,13422,4,2,1,0,0,0,6,0,3,0,-1,2,27,0,0,-1,0x330,-1,-1,-1,0 
1,2,404,0,0,13440,.SEL,13421,13431,4,2,1,0,0,0,1,0,3,0,-1,2,27,0,0,-1,0x340,-1,-1,-1,0 
1,2,405,0,0,13441,.IMAD.MOV.U32,13431,13432,4,2,1,0,0,0,6,0,3,0,-1,2,32,0,0,-1,0x350,-1,-1,-1,0 
1,2,407,0,0,13449,.IMAD.SHL.U32,13433,13440,4,2,1,0,0,0,6,0,3,0,-1,2,27,0,0,-1,0x370,-1,-1,-1,0 
1,2,406,0,0,13457,.LDS.U,13431,13433,1,1,1,1,0,4,8,0,6,0,-1,1,27,0,0,-1,0x360,-1,-1,-1,0 
1,2,408,0,0,13465,.LDS.U,13433,13441,1,1,1,1,0,4,8,0,6,0,-1,1,27,0,0,-1,0x380,-1,-1,-1,0 
1,2,409,0,0,13473,.LDS.U,13441,13449,1,1,1,1,0,4,8,0,6,0,-1,1,27,0,0,-1,0x390,-1,-1,-1,0 
1,2,410,0,0,13474,.ISETP.LT.AND,13441,13465,4,2,0,0,0,0,6,0,3,0,-1,2,27,0,0,-1,0x3a0,-1,-1,-1,0 
1,2,411,0,0,13475,.SEL,13465,13466,4,2,1,0,0,0,1,0,3,0,-1,2,27,0,0,-1,0x3b0,-1,-1,-1,0 
1,2,412,0,0,13484,.ISETP.LT.AND,13465,13475,4,2,0,0,0,0,6,0,3,0,-1,2,27,0,0,-1,0x3c0,-1,-1,-1,0 
1,2,413,0,0,13485,.SEL,13475,13476,4,2,1,0,0,0,1,0,3,0,-1,2,27,0,0,-1,0x3d0,-1,-1,-1,0 
1,2,414,0,0,13486,.ISETP.NE.AND,13475,13477,4,2,0,0,0,0,6,0,3,0,-1,2,32,0,0,-1,0x3e0,-1,-1,-1,0 
1,2,400,0,0,13613,.LDG.E.SYS,13401,13419,1,1,1,1,0,4,8,0,6,0,-1,1,27,0,0,-1,0x300,-1,-1,-1,1 
1,2,415,0,0,13622,.IMAD.IADD,13477,13613,4,2,1,0,0,0,6,0,3,0,-1,2,27,0,0,-1,0x3f0,-1,-1,-1,0 
1,2,416,0,0,13623,.PRMT,13477,13614,4,2,1,0,0,0,1,0,3,0,-1,2,32,0,0,-1,0x400,-1,-1,-1,0 
1,2,418,0,0,13627,.STS,13614,13624,1,2,0,0,1,4,11,0,6,0,-1,1,27,0,0,-1,0x420,-1,-1,-1,0 
1,2,420,0,0,13631,.BAR.SYNC,13624,13626,1,0,0,0,0,0,13,0,3,0,-1,1,32,0,0,-1,0x440,1,-1,-1,0 
1,2,417,0,0,13632,.PRMT,13614,13623,4,2,1,0,0,0,1,0,3,0,-1,2,27,0,0,-1,0x410,-1,-1,-1,0 
1,2,419,0,0,13633,.NOP,13624,13625,4,0,0,0,0,0,1,0,3,0,-1,2,32,0,0,-1,0x430,-1,-1,-1,0 
1,2,421,0,0,13635,.BRA,13626,13627,4,0,0,0,0,0,100,0,7,0,-1,4,0,0,0,-1,0x450,-1,-1,-1,0 
1,2,422,0,0,13641,.PRMT,13626,13632,4,2,1,0,0,0,1,0,3,0,-1,2,32,0,0,-1,0x460,-1,-1,-1,0 
1,2,423,0,0,13642,.IADD3,13632,13633,4,2,1,0,0,0,6,0,3,0,-1,2,32,0,0,-1,0x470,-1,-1,-1,0 
1,2,424,0,0,13650,.ISETP.NE.AND,13632,13641,4,2,0,0,0,0,6,0,3,0,-1,2,32,0,0,-1,0x480,-1,-1,-1,0 
1,2,425,0,0,13651,.IMAD.MOV.U32,13641,13642,4,3,1,0,0,0,6,0,3,0,-1,2,32,0,0,-1,0x490,-1,-1,-1,0 
1,2,426,0,0,13652,.IADD3,13641,13643,4,2,1,0,0,0,6,0,3,0,-1,2,32,0,0,-1,0x4a0,-1,-1,-1,0 
1,2,427,0,0,13653,.IMAD.SHL.U32,13643,13644,4,2,1,0,0,0,6,0,3,0,-1,2,27,0,0,-1,0x4b0,-1,-1,-1,0 
1,2,428,0,0,13677,.LDS.U,13643,13653,1,1,1,1,0,4,8,0,6,0,-1,1,27,0,0,-1,0x4c0,-1,-1,-1,0 
1,2,429,0,0,13680,.STS,13653,13677,1,2,0,0,1,4,11,0,6,0,-1,1,27,0,0,-1,0x4d0,-1,-1,-1,0 
1,2,430,0,0,13687,.ISETP.GE.AND,13653,13678,4,1,0,0,0,0,6,0,3,0,-1,2,32,0,0,-1,0x4e0,-1,-1,-1,0 
1,2,431,0,0,13687,.BRA,13678,13679,4,0,0,0,0,0,100,0,7,0,-1,4,32,0,0,-1,0x4f0,-1,-1,-1,0 
1,2,432,0,0,13689,.IADD3,13678,13680,4,2,1,0,0,0,6,0,3,0,-1,2,32,0,0,-1,0x290,-1,-1,-1,0 
1,2,433,0,0,13690,.IADD3,13680,13681,4,2,1,0,0,0,6,0,3,0,-1,2,32,0,0,-1,0x2a0,-1,-1,-1,0 
1,2,434,0,0,13698,.ISETP.GE.AND,13680,13689,4,2,0,0,0,0,6,0,3,0,-1,2,32,0,0,-1,0x2b0,-1,-1,-1,0 
1,2,435,0,0,13699,.ISETP.LE.AND,13689,13690,4,2,0,0,0,0,6,0,3,0,-1,2,32,0,0,-1,0x2c0,-1,-1,-1,0 
1,2,436,0,0,13699,.PLOP3.LUT,13689,13691,4,0,0,0,0,0,1,0,3,0,-1,2,32,0,0,-1,0x2d0,-1,-1,-1,0 
1,2,437,0,0,13701,.IMAD.MOV.U32,13691,13692,4,2,1,0,0,0,6,0,3,0,-1,2,27,0,0,-1,0x2e0,-1,-1,-1,0 
1,2,438,0,0,13710,.IMAD.WIDE,13691,13701,4,2,1,0,0,0,6,0,3,0,-1,2,27,0,0,-1,0x2f0,-1,-1,-1,0 
1,2,440,0,0,13720,.ISETP.GE.AND,13701,13711,4,2,0,0,0,0,6,0,3,0,-1,2,27,0,0,-1,0x310,-1,-1,-1,0 
1,2,441,0,0,13721,.IMAD.SHL.U32,13711,13712,4,2,1,0,0,0,6,0,3,0,-1,2,27,0,0,-1,0x320,-1,-1,-1,0 
1,2,442,0,0,13722,.IADD3,13711,13713,4,2,1,0,0,0,6,0,3,0,-1,2,27,0,0,-1,0x330,-1,-1,-1,0 
1,2,443,0,0,13731,.SEL,13713,13722,4,2,1,0,0,0,1,0,3,0,-1,2,27,0,0,-1,0x340,-1,-1,-1,0 
1,2,444,0,0,13732,.IMAD.MOV.U32,13713,13723,4,2,1,0,0,0,6,0,3,0,-1,2,32,0,0,-1,0x350,-1,-1,-1,0 
1,2,446,0,0,13740,.IMAD.SHL.U32,13723,13731,4,2,1,0,0,0,6,0,3,0,-1,2,27,0,0,-1,0x370,-1,-1,-1,0 
1,2,445,0,0,13748,.LDS.U,13723,13724,1,1,1,1,0,4,8,0,6,0,-1,1,27,0,0,-1,0x360,-1,-1,-1,0 
1,2,447,0,0,13756,.LDS.U,13731,13732,1,1,1,1,0,4,8,0,6,0,-1,1,27,0,0,-1,0x380,-1,-1,-1,0 
1,2,448,0,0,13764,.LDS.U,13731,13740,1,1,1,1,0,4,8,0,6,0,-1,1,27,0,0,-1,0x390,-1,-1,-1,0 
1,2,449,0,0,13765,.ISETP.LT.AND,13740,13756,4,2,0,0,0,0,6,0,3,0,-1,2,27,0,0,-1,0x3a0,-1,-1,-1,0 
1,2,450,0,0,13766,.SEL,13740,13757,4,2,1,0,0,0,1,0,3,0,-1,2,27,0,0,-1,0x3b0,-1,-1,-1,0 
1,2,451,0,0,13775,.ISETP.LT.AND,13757,13766,4,2,0,0,0,0,6,0,3,0,-1,2,27,0,0,-1,0x3c0,-1,-1,-1,0 
1,2,452,0,0,13776,.SEL,13757,13767,4,2,1,0,0,0,1,0,3,0,-1,2,27,0,0,-1,0x3d0,-1,-1,-1,0 
1,2,453,0,0,13777,.ISETP.NE.AND,13767,13768,4,2,0,0,0,0,6,0,3,0,-1,2,32,0,0,-1,0x3e0,-1,-1,-1,0 
1,2,439,0,0,13904,.LDG.E.SYS,13701,13710,1,1,1,1,0,4,8,0,6,0,-1,1,27,0,0,-1,0x300,-1,-1,-1,1 
1,2,454,0,0,13913,.IMAD.IADD,13767,13904,4,2,1,0,0,0,6,0,3,0,-1,2,27,0,0,-1,0x3f0,-1,-1,-1,0 
1,2,455,0,0,13914,.PRMT,13904,13905,4,2,1,0,0,0,1,0,3,0,-1,2,32,0,0,-1,0x400,-1,-1,-1,0 
1,2,457,0,0,13918,.STS,13914,13915,1,2,0,0,1,4,11,0,6,0,-1,1,27,0,0,-1,0x420,-1,-1,-1,0 
1,2,459,0,0,13922,.BAR.SYNC,13916,13917,1,0,0,0,0,0,13,0,3,0,-1,1,32,0,0,-1,0x440,1,-1,-1,0 
1,2,456,0,0,13923,.PRMT,13904,13914,4,2,1,0,0,0,1,0,3,0,-1,2,27,0,0,-1,0x410,-1,-1,-1,0 
1,2,458,0,0,13924,.NOP,13914,13916,4,0,0,0,0,0,1,0,3,0,-1,2,32,0,0,-1,0x430,-1,-1,-1,0 
1,2,460,0,0,13926,.BRA,13916,13918,4,0,0,0,0,0,100,0,7,0,-1,4,32,0,0,-1,0x450,-1,-1,-1,0 
1,2,462,0,0,13929,.EXIT,13918,13924,1,0,0,0,0,0,17,0,3,0,-1,1,5,0,0,-1,0x510,-1,-1,-1,0 
1,2,461,0,0,13933,.LOP3.LUT,13918,13923,4,3,0,0,0,0,6,0,3,0,-1,2,32,0,0,-1,0x500,-1,-1,-1,0 
1,2,463,0,0,13934,.IMAD.SHL.U32,13924,13925,4,2,1,0,0,0,6,0,3,0,-1,2,27,0,0,-1,0x520,-1,-1,-1,0 
1,2,464,0,0,13935,.IMAD.MOV.U32,13924,13926,4,2,1,0,0,0,6,0,3,0,-1,2,27,0,0,-1,0x530,-1,-1,-1,0 
1,2,465,0,0,13944,.IMAD.WIDE,13926,13935,4,2,1,0,0,0,6,0,3,0,-1,2,27,0,0,-1,0x540,-1,-1,-1,0 
1,2,466,0,0,13960,.LDS.U,13926,13936,1,1,1,1,0,4,8,0,6,0,-1,1,27,0,0,-1,0x550,-1,-1,-1,0 
1,2,468,0,0,13966,.EXIT,13936,13961,1,0,0,0,0,0,17,0,3,0,-1,1,27,0,0,-1,0x570,-1,-1,-1,0 
1,2,467,0,0,13966,.STG.E.SYS,13936,13960,1,2,0,0,1,4,11,0,6,0,-1,1,27,0,0,-1,0x560,-1,-1,-1,1 
Destroy streams for kernel 2: size 0


gpgpu_simulation_time = 0 days, 0 hrs, 0 min, 1 sec (1 sec)
gpgpu_simulation_rate = 13408 (inst/sec)
gpgpu_simulation_rate = 14154 (cycle/sec)
gpgpu_silicon_slowdown = 79977x
-kernel name = _Z14dynproc_kerneliPiS_S_iiii
-kernel id = 3
-grid dim = (5,1,1)
-block dim = (256,1,1)
-shmem = 2048
-nregs = 18
-binary version = 70
-cuda stream id = 0
-shmem base_addr = 0x00007f18c2000000
-local mem base_addr = 0x00007f18c4000000
-nvbit version = 1.4
-accelsim tracer version = 3
launching kernel command : /scratch/santosh/gpu_simulation/accel-sim-framework/traces/rodinia_2.0-ft/11.0/pathfinder-rodinia-2.0-ft/1000_20_5___data_result_1000_20_5_txt/traces/kernel-3.traceg
GPGPU-Sim uArch: Shader 0 bind to kernel 3 '_Z14dynproc_kerneliPiS_S_iiii'
GPGPU-Sim: Reconfigure L1 cache to 120KB
GPGPUsim: cta_size: 32
ctaid: 0, start warp: 0, end_warp: 1, start_thread: 0, end_thread: 32
thread block = 0,0,0
warp id: 0
warp id: 1
warp_id: 0, insts: 234
1,3,469,0,0,19165,.IMAD.MOV.U32,19155,19156,4,2,1,0,0,0,6,0,3,0,-1,2,32,0,0,-1,0,-1,-1,-1,0 
1,3,471,0,0,19166,.S2R,19157,19158,4,0,1,0,0,0,1,0,3,0,-1,2,32,0,0,-1,0x20,-1,-1,-1,0 
1,3,470,0,0,19167,.SHFL.IDX,19155,19157,4,4,0,0,0,0,1,0,3,0,-1,2,0,0,0,-1,0x10,-1,-1,-1,0 
1,3,472,0,0,19168,.IMAD.MOV,19157,19159,4,2,1,0,0,0,6,0,3,0,-1,2,32,0,0,-1,0x30,-1,-1,-1,0 
1,3,473,0,0,19169,.IMAD.MOV.U32,19159,19160,4,2,1,0,0,0,6,0,3,0,-1,2,32,0,0,-1,0x40,-1,-1,-1,0 
1,3,474,0,0,19169,.S2R,19159,19161,4,0,1,0,0,0,1,0,3,0,-1,2,32,0,0,-1,0x50,-1,-1,-1,0 
1,3,475,0,0,19177,.LEA,19161,19168,4,1,1,0,0,0,6,0,3,0,-1,2,32,0,0,-1,0x60,-1,-1,-1,0 
1,3,476,0,0,19178,.IADD3,19161,19169,4,2,1,0,0,0,6,0,3,0,-1,2,32,0,0,-1,0x70,-1,-1,-1,0 
1,3,477,0,0,19186,.IMAD,19169,19177,4,2,1,0,0,0,6,0,3,0,-1,2,32,0,0,-1,0x80,-1,-1,-1,0 
1,3,478,0,0,19195,.IMAD.IADD,19169,19186,4,2,1,0,0,0,6,0,3,0,-1,2,32,0,0,-1,0x90,-1,-1,-1,0 
1,3,479,0,0,19204,.ISETP.GT.AND,19186,19195,4,2,0,0,0,0,6,0,3,0,-1,2,32,0,0,-1,0xa0,-1,-1,-1,0 
1,3,480,0,0,19205,.ISETP.GT.AND,19186,19196,4,1,0,0,0,0,6,0,3,0,-1,2,32,0,0,-1,0xb0,-1,-1,-1,0 
1,3,481,0,0,19206,.IMAD.MOV.U32,19196,19197,4,2,1,0,0,0,6,0,3,0,-1,2,27,0,0,-1,0xc0,-1,-1,-1,0 
1,3,482,0,0,19215,.IMAD.WIDE,19196,19206,4,2,1,0,0,0,6,0,3,0,-1,2,27,0,0,-1,0xd0,-1,-1,-1,0 
1,3,484,0,0,19225,.IMAD.SHL.U32,19206,19216,4,2,1,0,0,0,6,0,3,0,-1,2,27,0,0,-1,0xf0,-1,-1,-1,0 
1,3,485,0,0,19226,.SHF.R.S32.HI,19216,19217,4,2,1,0,0,0,6,0,3,0,-1,2,32,0,0,-1,0x100,-1,-1,-1,0 
1,3,486,0,0,19227,.IMAD.MOV.U32,19216,19218,4,2,1,0,0,0,6,0,3,0,-1,2,32,0,0,-1,0x110,-1,-1,-1,0 
1,3,487,0,0,19229,.IMAD.MOV,19218,19219,4,3,1,0,0,0,6,0,3,0,-1,2,32,0,0,-1,0x120,-1,-1,-1,0 
1,3,488,0,0,19238,.LOP3.LUT,19218,19229,4,3,1,0,0,0,6,0,3,0,-1,2,32,0,0,-1,0x130,-1,-1,-1,0 
1,3,483,0,0,19410,.LDG.E.SYS,19206,19215,1,1,1,1,0,4,8,0,6,0,-1,1,27,0,0,-1,0xe0,-1,-1,-1,1 
1,3,489,0,0,19413,.STS,19229,19410,1,2,0,0,1,4,11,0,6,0,-1,1,27,0,0,-1,0x140,-1,-1,-1,0 
1,3,490,0,0,19420,.ISETP.LE.AND,19229,19411,4,1,0,0,0,0,6,0,3,0,-1,2,32,0,0,-1,0x150,-1,-1,-1,0 
1,3,491,0,0,19420,.BRA,19411,19412,4,0,0,0,0,0,100,0,7,0,-1,4,0,0,0,-1,0x160,-1,-1,-1,0 
1,3,492,0,0,19422,.IADD3,19411,19413,4,2,1,0,0,0,6,0,3,0,-1,2,32,0,0,-1,0x170,-1,-1,-1,0 
1,3,493,0,0,19423,.IMAD.MOV.U32,19413,19414,4,2,1,0,0,0,6,0,3,0,-1,2,32,0,0,-1,0x180,-1,-1,-1,0 
1,3,494,0,0,19424,.IADD3,19413,19415,4,2,1,0,0,0,6,0,3,0,-1,2,32,0,0,-1,0x190,-1,-1,-1,0 
1,3,495,0,0,19431,.IADD3,19415,19422,4,2,1,0,0,0,6,0,3,0,-1,2,32,0,0,-1,0x1a0,-1,-1,-1,0 
1,3,496,0,0,19433,.ISETP.GT.AND,19415,19424,4,2,0,0,0,0,6,0,3,0,-1,2,32,0,0,-1,0x1b0,-1,-1,-1,0 
1,3,497,0,0,19434,.IADD3,19424,19425,4,2,1,0,0,0,6,0,3,0,-1,2,32,0,0,-1,0x1c0,-1,-1,-1,0 
1,3,498,0,0,19440,.IADD3,19424,19431,4,2,1,0,0,0,6,0,3,0,-1,2,32,0,0,-1,0x1d0,-1,-1,-1,0 
1,3,499,0,0,19441,.IMAD,19431,19432,4,2,1,0,0,0,6,0,3,0,-1,2,32,0,0,-1,0x1e0,-1,-1,-1,0 
1,3,500,0,0,19443,.ISETP.LT.AND,19431,19434,4,2,0,0,0,0,6,0,3,0,-1,2,32,0,0,-1,0x1f0,-1,-1,-1,0 
1,3,501,0,0,19444,.ISETP.GE.AND,19434,19435,4,2,0,0,0,0,6,0,3,0,-1,2,32,0,0,-1,0x200,-1,-1,-1,0 
1,3,502,0,0,19450,.IMAD,19434,19441,4,3,1,0,0,0,6,0,3,0,-1,2,32,0,0,-1,0x210,-1,-1,-1,0 
1,3,503,0,0,19451,.SEL,19441,19442,4,2,1,0,0,0,1,0,3,0,-1,2,32,0,0,-1,0x220,-1,-1,-1,0 
1,3,504,0,0,19453,.IMAD.MOV.U32,19441,19443,4,3,1,0,0,0,6,0,3,0,-1,2,32,0,0,-1,0x230,-1,-1,-1,0 
1,3,505,0,0,19453,.SEL,19443,19444,4,1,1,0,0,0,1,0,3,0,-1,2,32,0,0,-1,0x240,-1,-1,-1,0 
1,3,506,0,0,19454,.IADD3,19443,19445,4,2,1,0,0,0,6,0,3,0,-1,2,32,0,0,-1,0x250,-1,-1,-1,0 
1,3,507,0,0,19461,.IMAD.SHL.U32,19445,19451,4,2,1,0,0,0,6,0,3,0,-1,2,32,0,0,-1,0x260,-1,-1,-1,0 
1,3,508,0,0,19462,.ISETP.LE.AND,19445,19453,4,2,0,0,0,0,6,0,3,0,-1,2,32,0,0,-1,0x270,-1,-1,-1,0 
1,3,509,0,0,19463,.IADD3,19453,19454,4,2,1,0,0,0,6,0,3,0,-1,2,32,0,0,-1,0x280,-1,-1,-1,0 
1,3,510,0,0,19464,.IADD3,19453,19455,4,2,1,0,0,0,6,0,3,0,-1,2,32,0,0,-1,0x290,-1,-1,-1,0 
1,3,511,0,0,19465,.IADD3,19455,19456,4,2,1,0,0,0,6,0,3,0,-1,2,32,0,0,-1,0x2a0,-1,-1,-1,0 
1,3,512,0,0,19473,.ISETP.GE.AND,19455,19464,4,2,0,0,0,0,6,0,3,0,-1,2,32,0,0,-1,0x2b0,-1,-1,-1,0 
1,3,513,0,0,19474,.ISETP.LE.AND,19464,19465,4,2,0,0,0,0,6,0,3,0,-1,2,32,0,0,-1,0x2c0,-1,-1,-1,0 
1,3,514,0,0,19474,.PLOP3.LUT,19464,19466,4,0,0,0,0,0,1,0,3,0,-1,2,32,0,0,-1,0x2d0,-1,-1,-1,0 
1,3,515,0,0,19476,.IMAD.MOV.U32,19466,19467,4,2,1,0,0,0,6,0,3,0,-1,2,27,0,0,-1,0x2e0,-1,-1,-1,0 
1,3,516,0,0,19485,.IMAD.WIDE,19466,19476,4,2,1,0,0,0,6,0,3,0,-1,2,27,0,0,-1,0x2f0,-1,-1,-1,0 
1,3,518,0,0,19495,.ISETP.GE.AND,19476,19486,4,2,0,0,0,0,6,0,3,0,-1,2,27,0,0,-1,0x310,-1,-1,-1,0 
1,3,519,0,0,19496,.IMAD.SHL.U32,19486,19487,4,2,1,0,0,0,6,0,3,0,-1,2,27,0,0,-1,0x320,-1,-1,-1,0 
1,3,520,0,0,19497,.IADD3,19486,19488,4,2,1,0,0,0,6,0,3,0,-1,2,27,0,0,-1,0x330,-1,-1,-1,0 
1,3,521,0,0,19506,.SEL,19488,19497,4,2,1,0,0,0,1,0,3,0,-1,2,27,0,0,-1,0x340,-1,-1,-1,0 
1,3,522,0,0,19507,.IMAD.MOV.U32,19488,19498,4,2,1,0,0,0,6,0,3,0,-1,2,32,0,0,-1,0x350,-1,-1,-1,0 
1,3,524,0,0,19515,.IMAD.SHL.U32,19498,19506,4,2,1,0,0,0,6,0,3,0,-1,2,27,0,0,-1,0x370,-1,-1,-1,0 
1,3,523,0,0,19523,.LDS.U,19498,19499,1,1,1,1,0,4,8,0,6,0,-1,1,27,0,0,-1,0x360,-1,-1,-1,0 
1,3,525,0,0,19531,.LDS.U,19506,19507,1,1,1,1,0,4,8,0,6,0,-1,1,27,0,0,-1,0x380,-1,-1,-1,0 
1,3,526,0,0,19539,.LDS.U,19506,19515,1,1,1,1,0,4,8,0,6,0,-1,1,27,0,0,-1,0x390,-1,-1,-1,0 
1,3,527,0,0,19540,.ISETP.LT.AND,19515,19531,4,2,0,0,0,0,6,0,3,0,-1,2,27,0,0,-1,0x3a0,-1,-1,-1,0 
1,3,528,0,0,19541,.SEL,19515,19532,4,2,1,0,0,0,1,0,3,0,-1,2,27,0,0,-1,0x3b0,-1,-1,-1,0 
1,3,529,0,0,19550,.ISETP.LT.AND,19532,19541,4,2,0,0,0,0,6,0,3,0,-1,2,27,0,0,-1,0x3c0,-1,-1,-1,0 
1,3,530,0,0,19551,.SEL,19532,19542,4,2,1,0,0,0,1,0,3,0,-1,2,27,0,0,-1,0x3d0,-1,-1,-1,0 
1,3,531,0,0,19552,.ISETP.NE.AND,19542,19543,4,2,0,0,0,0,6,0,3,0,-1,2,32,0,0,-1,0x3e0,-1,-1,-1,0 
1,3,517,0,0,19679,.LDG.E.SYS,19476,19485,1,1,1,1,0,4,8,0,6,0,-1,1,27,0,0,-1,0x300,-1,-1,-1,1 
1,3,532,0,0,19688,.IMAD.IADD,19542,19679,4,2,1,0,0,0,6,0,3,0,-1,2,27,0,0,-1,0x3f0,-1,-1,-1,0 
1,3,533,0,0,19689,.PRMT,19679,19680,4,2,1,0,0,0,1,0,3,0,-1,2,32,0,0,-1,0x400,-1,-1,-1,0 
1,3,535,0,0,19693,.STS,19689,19690,1,2,0,0,1,4,11,0,6,0,-1,1,27,0,0,-1,0x420,-1,-1,-1,0 
1,3,537,0,0,19697,.BAR.SYNC,19691,19692,1,0,0,0,0,0,13,0,3,0,-1,1,32,0,0,-1,0x440,1,-1,-1,0 
1,3,534,0,0,19698,.PRMT,19679,19689,4,2,1,0,0,0,1,0,3,0,-1,2,27,0,0,-1,0x410,-1,-1,-1,0 
1,3,536,0,0,19699,.NOP,19689,19691,4,0,0,0,0,0,1,0,3,0,-1,2,32,0,0,-1,0x430,-1,-1,-1,0 
1,3,538,0,0,19701,.BRA,19691,19693,4,0,0,0,0,0,100,0,7,0,-1,4,0,0,0,-1,0x450,-1,-1,-1,0 
1,3,539,0,0,19707,.PRMT,19693,19698,4,2,1,0,0,0,1,0,3,0,-1,2,32,0,0,-1,0x460,-1,-1,-1,0 
1,3,540,0,0,19708,.IADD3,19693,19699,4,2,1,0,0,0,6,0,3,0,-1,2,32,0,0,-1,0x470,-1,-1,-1,0 
1,3,541,0,0,19716,.ISETP.NE.AND,19699,19707,4,2,0,0,0,0,6,0,3,0,-1,2,32,0,0,-1,0x480,-1,-1,-1,0 
1,3,542,0,0,19717,.IMAD.MOV.U32,19699,19708,4,3,1,0,0,0,6,0,3,0,-1,2,32,0,0,-1,0x490,-1,-1,-1,0 
1,3,543,0,0,19718,.IADD3,19708,19709,4,2,1,0,0,0,6,0,3,0,-1,2,32,0,0,-1,0x4a0,-1,-1,-1,0 
1,3,544,0,0,19719,.IMAD.SHL.U32,19708,19710,4,2,1,0,0,0,6,0,3,0,-1,2,27,0,0,-1,0x4b0,-1,-1,-1,0 
1,3,545,0,0,19743,.LDS.U,19710,19719,1,1,1,1,0,4,8,0,6,0,-1,1,27,0,0,-1,0x4c0,-1,-1,-1,0 
1,3,546,0,0,19746,.STS,19710,19743,1,2,0,0,1,4,11,0,6,0,-1,1,27,0,0,-1,0x4d0,-1,-1,-1,0 
1,3,547,0,0,19753,.ISETP.GE.AND,19743,19744,4,1,0,0,0,0,6,0,3,0,-1,2,32,0,0,-1,0x4e0,-1,-1,-1,0 
1,3,548,0,0,19753,.BRA,19743,19745,4,0,0,0,0,0,100,0,7,0,-1,4,32,0,0,-1,0x4f0,-1,-1,-1,0 
1,3,549,0,0,19755,.IADD3,19745,19746,4,2,1,0,0,0,6,0,3,0,-1,2,32,0,0,-1,0x290,-1,-1,-1,0 
1,3,550,0,0,19756,.IADD3,19745,19747,4,2,1,0,0,0,6,0,3,0,-1,2,32,0,0,-1,0x2a0,-1,-1,-1,0 
1,3,551,0,0,19764,.ISETP.GE.AND,19747,19755,4,2,0,0,0,0,6,0,3,0,-1,2,32,0,0,-1,0x2b0,-1,-1,-1,0 
1,3,552,0,0,19765,.ISETP.LE.AND,19747,19756,4,2,0,0,0,0,6,0,3,0,-1,2,32,0,0,-1,0x2c0,-1,-1,-1,0 
1,3,553,0,0,19765,.PLOP3.LUT,19756,19757,4,0,0,0,0,0,1,0,3,0,-1,2,32,0,0,-1,0x2d0,-1,-1,-1,0 
1,3,554,0,0,19767,.IMAD.MOV.U32,19756,19758,4,2,1,0,0,0,6,0,3,0,-1,2,27,0,0,-1,0x2e0,-1,-1,-1,0 
1,3,555,0,0,19776,.IMAD.WIDE,19758,19767,4,2,1,0,0,0,6,0,3,0,-1,2,27,0,0,-1,0x2f0,-1,-1,-1,0 
1,3,557,0,0,19786,.ISETP.GE.AND,19776,19777,4,2,0,0,0,0,6,0,3,0,-1,2,27,0,0,-1,0x310,-1,-1,-1,0 
1,3,558,0,0,19787,.IMAD.SHL.U32,19776,19778,4,2,1,0,0,0,6,0,3,0,-1,2,27,0,0,-1,0x320,-1,-1,-1,0 
1,3,559,0,0,19788,.IADD3,19778,19779,4,2,1,0,0,0,6,0,3,0,-1,2,27,0,0,-1,0x330,-1,-1,-1,0 
1,3,560,0,0,19797,.SEL,19778,19788,4,2,1,0,0,0,1,0,3,0,-1,2,27,0,0,-1,0x340,-1,-1,-1,0 
1,3,561,0,0,19798,.IMAD.MOV.U32,19788,19789,4,2,1,0,0,0,6,0,3,0,-1,2,32,0,0,-1,0x350,-1,-1,-1,0 
1,3,563,0,0,19806,.IMAD.SHL.U32,19790,19797,4,2,1,0,0,0,6,0,3,0,-1,2,27,0,0,-1,0x370,-1,-1,-1,0 
1,3,562,0,0,19814,.LDS.U,19788,19790,1,1,1,1,0,4,8,0,6,0,-1,1,27,0,0,-1,0x360,-1,-1,-1,0 
1,3,564,0,0,19822,.LDS.U,19790,19798,1,1,1,1,0,4,8,0,6,0,-1,1,27,0,0,-1,0x380,-1,-1,-1,0 
1,3,565,0,0,19830,.LDS.U,19798,19806,1,1,1,1,0,4,8,0,6,0,-1,1,27,0,0,-1,0x390,-1,-1,-1,0 
1,3,566,0,0,19831,.ISETP.LT.AND,19798,19822,4,2,0,0,0,0,6,0,3,0,-1,2,27,0,0,-1,0x3a0,-1,-1,-1,0 
1,3,567,0,0,19832,.SEL,19822,19823,4,2,1,0,0,0,1,0,3,0,-1,2,27,0,0,-1,0x3b0,-1,-1,-1,0 
1,3,568,0,0,19841,.ISETP.LT.AND,19822,19832,4,2,0,0,0,0,6,0,3,0,-1,2,27,0,0,-1,0x3c0,-1,-1,-1,0 
1,3,569,0,0,19842,.SEL,19832,19833,4,2,1,0,0,0,1,0,3,0,-1,2,27,0,0,-1,0x3d0,-1,-1,-1,0 
1,3,570,0,0,19843,.ISETP.NE.AND,19832,19834,4,2,0,0,0,0,6,0,3,0,-1,2,32,0,0,-1,0x3e0,-1,-1,-1,0 
1,3,556,0,0,19970,.LDG.E.SYS,19758,19776,1,1,1,1,0,4,8,0,6,0,-1,1,27,0,0,-1,0x300,-1,-1,-1,1 
1,3,571,0,0,19979,.IMAD.IADD,19834,19970,4,2,1,0,0,0,6,0,3,0,-1,2,27,0,0,-1,0x3f0,-1,-1,-1,0 
1,3,572,0,0,19980,.PRMT,19834,19971,4,2,1,0,0,0,1,0,3,0,-1,2,32,0,0,-1,0x400,-1,-1,-1,0 
1,3,574,0,0,19984,.STS,19971,19981,1,2,0,0,1,4,11,0,6,0,-1,1,27,0,0,-1,0x420,-1,-1,-1,0 
1,3,576,0,0,19988,.BAR.SYNC,19981,19983,1,0,0,0,0,0,13,0,3,0,-1,1,32,0,0,-1,0x440,1,-1,-1,0 
1,3,573,0,0,19989,.PRMT,19971,19980,4,2,1,0,0,0,1,0,3,0,-1,2,27,0,0,-1,0x410,-1,-1,-1,0 
1,3,575,0,0,19990,.NOP,19981,19982,4,0,0,0,0,0,1,0,3,0,-1,2,32,0,0,-1,0x430,-1,-1,-1,0 
1,3,577,0,0,19992,.BRA,19983,19984,4,0,0,0,0,0,100,0,7,0,-1,4,0,0,0,-1,0x450,-1,-1,-1,0 
1,3,578,0,0,19998,.PRMT,19983,19989,4,2,1,0,0,0,1,0,3,0,-1,2,32,0,0,-1,0x460,-1,-1,-1,0 
1,3,579,0,0,19999,.IADD3,19989,19990,4,2,1,0,0,0,6,0,3,0,-1,2,32,0,0,-1,0x470,-1,-1,-1,0 
1,3,580,0,0,20007,.ISETP.NE.AND,19989,19998,4,2,0,0,0,0,6,0,3,0,-1,2,32,0,0,-1,0x480,-1,-1,-1,0 
1,3,581,0,0,20008,.IMAD.MOV.U32,19998,19999,4,3,1,0,0,0,6,0,3,0,-1,2,32,0,0,-1,0x490,-1,-1,-1,0 
1,3,582,0,0,20009,.IADD3,19998,20000,4,2,1,0,0,0,6,0,3,0,-1,2,32,0,0,-1,0x4a0,-1,-1,-1,0 
1,3,583,0,0,20010,.IMAD.SHL.U32,20000,20001,4,2,1,0,0,0,6,0,3,0,-1,2,27,0,0,-1,0x4b0,-1,-1,-1,0 
1,3,584,0,0,20034,.LDS.U,20000,20010,1,1,1,1,0,4,8,0,6,0,-1,1,27,0,0,-1,0x4c0,-1,-1,-1,0 
1,3,585,0,0,20037,.STS,20010,20034,1,2,0,0,1,4,11,0,6,0,-1,1,27,0,0,-1,0x4d0,-1,-1,-1,0 
1,3,586,0,0,20044,.ISETP.GE.AND,20010,20035,4,1,0,0,0,0,6,0,3,0,-1,2,32,0,0,-1,0x4e0,-1,-1,-1,0 
1,3,587,0,0,20044,.BRA,20035,20036,4,0,0,0,0,0,100,0,7,0,-1,4,32,0,0,-1,0x4f0,-1,-1,-1,0 
1,3,588,0,0,20046,.IADD3,20035,20037,4,2,1,0,0,0,6,0,3,0,-1,2,32,0,0,-1,0x290,-1,-1,-1,0 
1,3,589,0,0,20047,.IADD3,20037,20038,4,2,1,0,0,0,6,0,3,0,-1,2,32,0,0,-1,0x2a0,-1,-1,-1,0 
1,3,590,0,0,20055,.ISETP.GE.AND,20037,20046,4,2,0,0,0,0,6,0,3,0,-1,2,32,0,0,-1,0x2b0,-1,-1,-1,0 
1,3,591,0,0,20056,.ISETP.LE.AND,20046,20047,4,2,0,0,0,0,6,0,3,0,-1,2,32,0,0,-1,0x2c0,-1,-1,-1,0 
1,3,592,0,0,20056,.PLOP3.LUT,20046,20048,4,0,0,0,0,0,1,0,3,0,-1,2,32,0,0,-1,0x2d0,-1,-1,-1,0 
1,3,593,0,0,20058,.IMAD.MOV.U32,20048,20049,4,2,1,0,0,0,6,0,3,0,-1,2,27,0,0,-1,0x2e0,-1,-1,-1,0 
1,3,594,0,0,20067,.IMAD.WIDE,20048,20058,4,2,1,0,0,0,6,0,3,0,-1,2,27,0,0,-1,0x2f0,-1,-1,-1,0 
1,3,596,0,0,20077,.ISETP.GE.AND,20058,20068,4,2,0,0,0,0,6,0,3,0,-1,2,27,0,0,-1,0x310,-1,-1,-1,0 
1,3,597,0,0,20078,.IMAD.SHL.U32,20068,20069,4,2,1,0,0,0,6,0,3,0,-1,2,27,0,0,-1,0x320,-1,-1,-1,0 
1,3,598,0,0,20079,.IADD3,20068,20070,4,2,1,0,0,0,6,0,3,0,-1,2,27,0,0,-1,0x330,-1,-1,-1,0 
1,3,599,0,0,20088,.SEL,20070,20079,4,2,1,0,0,0,1,0,3,0,-1,2,27,0,0,-1,0x340,-1,-1,-1,0 
1,3,600,0,0,20089,.IMAD.MOV.U32,20070,20080,4,2,1,0,0,0,6,0,3,0,-1,2,32,0,0,-1,0x350,-1,-1,-1,0 
1,3,602,0,0,20097,.IMAD.SHL.U32,20080,20088,4,2,1,0,0,0,6,0,3,0,-1,2,27,0,0,-1,0x370,-1,-1,-1,0 
1,3,601,0,0,20105,.LDS.U,20080,20081,1,1,1,1,0,4,8,0,6,0,-1,1,27,0,0,-1,0x360,-1,-1,-1,0 
1,3,603,0,0,20113,.LDS.U,20088,20089,1,1,1,1,0,4,8,0,6,0,-1,1,27,0,0,-1,0x380,-1,-1,-1,0 
1,3,604,0,0,20121,.LDS.U,20088,20097,1,1,1,1,0,4,8,0,6,0,-1,1,27,0,0,-1,0x390,-1,-1,-1,0 
1,3,605,0,0,20122,.ISETP.LT.AND,20097,20113,4,2,0,0,0,0,6,0,3,0,-1,2,27,0,0,-1,0x3a0,-1,-1,-1,0 
1,3,606,0,0,20123,.SEL,20097,20114,4,2,1,0,0,0,1,0,3,0,-1,2,27,0,0,-1,0x3b0,-1,-1,-1,0 
1,3,607,0,0,20132,.ISETP.LT.AND,20114,20123,4,2,0,0,0,0,6,0,3,0,-1,2,27,0,0,-1,0x3c0,-1,-1,-1,0 
1,3,608,0,0,20133,.SEL,20114,20124,4,2,1,0,0,0,1,0,3,0,-1,2,27,0,0,-1,0x3d0,-1,-1,-1,0 
1,3,609,0,0,20134,.ISETP.NE.AND,20124,20125,4,2,0,0,0,0,6,0,3,0,-1,2,32,0,0,-1,0x3e0,-1,-1,-1,0 
1,3,595,0,0,20261,.LDG.E.SYS,20058,20067,1,1,1,1,0,4,8,0,6,0,-1,1,27,0,0,-1,0x300,-1,-1,-1,1 
1,3,610,0,0,20270,.IMAD.IADD,20124,20261,4,2,1,0,0,0,6,0,3,0,-1,2,27,0,0,-1,0x3f0,-1,-1,-1,0 
1,3,611,0,0,20271,.PRMT,20261,20262,4,2,1,0,0,0,1,0,3,0,-1,2,32,0,0,-1,0x400,-1,-1,-1,0 
1,3,613,0,0,20275,.STS,20271,20272,1,2,0,0,1,4,11,0,6,0,-1,1,27,0,0,-1,0x420,-1,-1,-1,0 
1,3,615,0,0,20279,.BAR.SYNC,20273,20274,1,0,0,0,0,0,13,0,3,0,-1,1,32,0,0,-1,0x440,1,-1,-1,0 
1,3,612,0,0,20280,.PRMT,20261,20271,4,2,1,0,0,0,1,0,3,0,-1,2,27,0,0,-1,0x410,-1,-1,-1,0 
1,3,614,0,0,20281,.NOP,20271,20273,4,0,0,0,0,0,1,0,3,0,-1,2,32,0,0,-1,0x430,-1,-1,-1,0 
1,3,616,0,0,20283,.BRA,20273,20275,4,0,0,0,0,0,100,0,7,0,-1,4,0,0,0,-1,0x450,-1,-1,-1,0 
1,3,617,0,0,20289,.PRMT,20275,20280,4,2,1,0,0,0,1,0,3,0,-1,2,32,0,0,-1,0x460,-1,-1,-1,0 
1,3,618,0,0,20290,.IADD3,20275,20281,4,2,1,0,0,0,6,0,3,0,-1,2,32,0,0,-1,0x470,-1,-1,-1,0 
1,3,619,0,0,20298,.ISETP.NE.AND,20281,20289,4,2,0,0,0,0,6,0,3,0,-1,2,32,0,0,-1,0x480,-1,-1,-1,0 
1,3,620,0,0,20299,.IMAD.MOV.U32,20281,20290,4,3,1,0,0,0,6,0,3,0,-1,2,32,0,0,-1,0x490,-1,-1,-1,0 
1,3,621,0,0,20300,.IADD3,20290,20291,4,2,1,0,0,0,6,0,3,0,-1,2,32,0,0,-1,0x4a0,-1,-1,-1,0 
1,3,622,0,0,20301,.IMAD.SHL.U32,20290,20292,4,2,1,0,0,0,6,0,3,0,-1,2,27,0,0,-1,0x4b0,-1,-1,-1,0 
1,3,623,0,0,20325,.LDS.U,20292,20301,1,1,1,1,0,4,8,0,6,0,-1,1,27,0,0,-1,0x4c0,-1,-1,-1,0 
1,3,624,0,0,20328,.STS,20292,20325,1,2,0,0,1,4,11,0,6,0,-1,1,27,0,0,-1,0x4d0,-1,-1,-1,0 
1,3,625,0,0,20335,.ISETP.GE.AND,20325,20326,4,1,0,0,0,0,6,0,3,0,-1,2,32,0,0,-1,0x4e0,-1,-1,-1,0 
1,3,626,0,0,20335,.BRA,20325,20327,4,0,0,0,0,0,100,0,7,0,-1,4,32,0,0,-1,0x4f0,-1,-1,-1,0 
1,3,627,0,0,20337,.IADD3,20327,20328,4,2,1,0,0,0,6,0,3,0,-1,2,32,0,0,-1,0x290,-1,-1,-1,0 
1,3,628,0,0,20338,.IADD3,20327,20329,4,2,1,0,0,0,6,0,3,0,-1,2,32,0,0,-1,0x2a0,-1,-1,-1,0 
1,3,629,0,0,20346,.ISETP.GE.AND,20329,20337,4,2,0,0,0,0,6,0,3,0,-1,2,32,0,0,-1,0x2b0,-1,-1,-1,0 
1,3,630,0,0,20347,.ISETP.LE.AND,20329,20338,4,2,0,0,0,0,6,0,3,0,-1,2,32,0,0,-1,0x2c0,-1,-1,-1,0 
1,3,631,0,0,20347,.PLOP3.LUT,20338,20339,4,0,0,0,0,0,1,0,3,0,-1,2,32,0,0,-1,0x2d0,-1,-1,-1,0 
1,3,632,0,0,20349,.IMAD.MOV.U32,20338,20340,4,2,1,0,0,0,6,0,3,0,-1,2,27,0,0,-1,0x2e0,-1,-1,-1,0 
1,3,633,0,0,20358,.IMAD.WIDE,20340,20349,4,2,1,0,0,0,6,0,3,0,-1,2,27,0,0,-1,0x2f0,-1,-1,-1,0 
1,3,635,0,0,20368,.ISETP.GE.AND,20358,20359,4,2,0,0,0,0,6,0,3,0,-1,2,27,0,0,-1,0x310,-1,-1,-1,0 
1,3,636,0,0,20369,.IMAD.SHL.U32,20358,20360,4,2,1,0,0,0,6,0,3,0,-1,2,27,0,0,-1,0x320,-1,-1,-1,0 
1,3,637,0,0,20370,.IADD3,20360,20361,4,2,1,0,0,0,6,0,3,0,-1,2,27,0,0,-1,0x330,-1,-1,-1,0 
1,3,638,0,0,20379,.SEL,20360,20370,4,2,1,0,0,0,1,0,3,0,-1,2,27,0,0,-1,0x340,-1,-1,-1,0 
1,3,639,0,0,20380,.IMAD.MOV.U32,20370,20371,4,2,1,0,0,0,6,0,3,0,-1,2,32,0,0,-1,0x350,-1,-1,-1,0 
1,3,641,0,0,20388,.IMAD.SHL.U32,20372,20379,4,2,1,0,0,0,6,0,3,0,-1,2,27,0,0,-1,0x370,-1,-1,-1,0 
1,3,640,0,0,20396,.LDS.U,20370,20372,1,1,1,1,0,4,8,0,6,0,-1,1,27,0,0,-1,0x360,-1,-1,-1,0 
1,3,642,0,0,20404,.LDS.U,20372,20380,1,1,1,1,0,4,8,0,6,0,-1,1,27,0,0,-1,0x380,-1,-1,-1,0 
1,3,643,0,0,20412,.LDS.U,20380,20388,1,1,1,1,0,4,8,0,6,0,-1,1,27,0,0,-1,0x390,-1,-1,-1,0 
1,3,644,0,0,20413,.ISETP.LT.AND,20380,20404,4,2,0,0,0,0,6,0,3,0,-1,2,27,0,0,-1,0x3a0,-1,-1,-1,0 
1,3,645,0,0,20414,.SEL,20404,20405,4,2,1,0,0,0,1,0,3,0,-1,2,27,0,0,-1,0x3b0,-1,-1,-1,0 
1,3,646,0,0,20423,.ISETP.LT.AND,20404,20414,4,2,0,0,0,0,6,0,3,0,-1,2,27,0,0,-1,0x3c0,-1,-1,-1,0 
1,3,647,0,0,20424,.SEL,20414,20415,4,2,1,0,0,0,1,0,3,0,-1,2,27,0,0,-1,0x3d0,-1,-1,-1,0 
1,3,648,0,0,20425,.ISETP.NE.AND,20414,20416,4,2,0,0,0,0,6,0,3,0,-1,2,32,0,0,-1,0x3e0,-1,-1,-1,0 
1,3,634,0,0,20552,.LDG.E.SYS,20340,20358,1,1,1,1,0,4,8,0,6,0,-1,1,27,0,0,-1,0x300,-1,-1,-1,1 
1,3,649,0,0,20561,.IMAD.IADD,20416,20552,4,2,1,0,0,0,6,0,3,0,-1,2,27,0,0,-1,0x3f0,-1,-1,-1,0 
1,3,650,0,0,20562,.PRMT,20416,20553,4,2,1,0,0,0,1,0,3,0,-1,2,32,0,0,-1,0x400,-1,-1,-1,0 
1,3,652,0,0,20566,.STS,20553,20563,1,2,0,0,1,4,11,0,6,0,-1,1,27,0,0,-1,0x420,-1,-1,-1,0 
1,3,654,0,0,20570,.BAR.SYNC,20563,20565,1,0,0,0,0,0,13,0,3,0,-1,1,32,0,0,-1,0x440,1,-1,-1,0 
1,3,651,0,0,20571,.PRMT,20553,20562,4,2,1,0,0,0,1,0,3,0,-1,2,27,0,0,-1,0x410,-1,-1,-1,0 
1,3,653,0,0,20572,.NOP,20563,20564,4,0,0,0,0,0,1,0,3,0,-1,2,32,0,0,-1,0x430,-1,-1,-1,0 
1,3,655,0,0,20574,.BRA,20565,20566,4,0,0,0,0,0,100,0,7,0,-1,4,0,0,0,-1,0x450,-1,-1,-1,0 
1,3,656,0,0,20580,.PRMT,20565,20571,4,2,1,0,0,0,1,0,3,0,-1,2,32,0,0,-1,0x460,-1,-1,-1,0 
1,3,657,0,0,20581,.IADD3,20571,20572,4,2,1,0,0,0,6,0,3,0,-1,2,32,0,0,-1,0x470,-1,-1,-1,0 
1,3,658,0,0,20589,.ISETP.NE.AND,20571,20580,4,2,0,0,0,0,6,0,3,0,-1,2,32,0,0,-1,0x480,-1,-1,-1,0 
1,3,659,0,0,20590,.IMAD.MOV.U32,20580,20581,4,3,1,0,0,0,6,0,3,0,-1,2,32,0,0,-1,0x490,-1,-1,-1,0 
1,3,660,0,0,20591,.IADD3,20580,20582,4,2,1,0,0,0,6,0,3,0,-1,2,32,0,0,-1,0x4a0,-1,-1,-1,0 
1,3,661,0,0,20592,.IMAD.SHL.U32,20582,20583,4,2,1,0,0,0,6,0,3,0,-1,2,27,0,0,-1,0x4b0,-1,-1,-1,0 
1,3,662,0,0,20616,.LDS.U,20582,20592,1,1,1,1,0,4,8,0,6,0,-1,1,27,0,0,-1,0x4c0,-1,-1,-1,0 
1,3,663,0,0,20619,.STS,20592,20616,1,2,0,0,1,4,11,0,6,0,-1,1,27,0,0,-1,0x4d0,-1,-1,-1,0 
1,3,664,0,0,20626,.ISETP.GE.AND,20592,20617,4,1,0,0,0,0,6,0,3,0,-1,2,32,0,0,-1,0x4e0,-1,-1,-1,0 
1,3,665,0,0,20626,.BRA,20617,20618,4,0,0,0,0,0,100,0,7,0,-1,4,32,0,0,-1,0x4f0,-1,-1,-1,0 
1,3,666,0,0,20628,.IADD3,20617,20619,4,2,1,0,0,0,6,0,3,0,-1,2,32,0,0,-1,0x290,-1,-1,-1,0 
1,3,667,0,0,20629,.IADD3,20619,20620,4,2,1,0,0,0,6,0,3,0,-1,2,32,0,0,-1,0x2a0,-1,-1,-1,0 
1,3,668,0,0,20637,.ISETP.GE.AND,20619,20628,4,2,0,0,0,0,6,0,3,0,-1,2,32,0,0,-1,0x2b0,-1,-1,-1,0 
1,3,669,0,0,20638,.ISETP.LE.AND,20628,20629,4,2,0,0,0,0,6,0,3,0,-1,2,32,0,0,-1,0x2c0,-1,-1,-1,0 
1,3,670,0,0,20638,.PLOP3.LUT,20628,20630,4,0,0,0,0,0,1,0,3,0,-1,2,32,0,0,-1,0x2d0,-1,-1,-1,0 
1,3,671,0,0,20640,.IMAD.MOV.U32,20630,20631,4,2,1,0,0,0,6,0,3,0,-1,2,27,0,0,-1,0x2e0,-1,-1,-1,0 
1,3,672,0,0,20649,.IMAD.WIDE,20630,20640,4,2,1,0,0,0,6,0,3,0,-1,2,27,0,0,-1,0x2f0,-1,-1,-1,0 
1,3,674,0,0,20659,.ISETP.GE.AND,20640,20650,4,2,0,0,0,0,6,0,3,0,-1,2,27,0,0,-1,0x310,-1,-1,-1,0 
1,3,675,0,0,20660,.IMAD.SHL.U32,20650,20651,4,2,1,0,0,0,6,0,3,0,-1,2,27,0,0,-1,0x320,-1,-1,-1,0 
1,3,676,0,0,20661,.IADD3,20650,20652,4,2,1,0,0,0,6,0,3,0,-1,2,27,0,0,-1,0x330,-1,-1,-1,0 
1,3,677,0,0,20670,.SEL,20652,20661,4,2,1,0,0,0,1,0,3,0,-1,2,27,0,0,-1,0x340,-1,-1,-1,0 
1,3,678,0,0,20671,.IMAD.MOV.U32,20652,20662,4,2,1,0,0,0,6,0,3,0,-1,2,32,0,0,-1,0x350,-1,-1,-1,0 
1,3,680,0,0,20679,.IMAD.SHL.U32,20662,20670,4,2,1,0,0,0,6,0,3,0,-1,2,27,0,0,-1,0x370,-1,-1,-1,0 
1,3,679,0,0,20687,.LDS.U,20662,20663,1,1,1,1,0,4,8,0,6,0,-1,1,27,0,0,-1,0x360,-1,-1,-1,0 
1,3,681,0,0,20695,.LDS.U,20670,20671,1,1,1,1,0,4,8,0,6,0,-1,1,27,0,0,-1,0x380,-1,-1,-1,0 
1,3,682,0,0,20703,.LDS.U,20670,20679,1,1,1,1,0,4,8,0,6,0,-1,1,27,0,0,-1,0x390,-1,-1,-1,0 
1,3,683,0,0,20704,.ISETP.LT.AND,20679,20695,4,2,0,0,0,0,6,0,3,0,-1,2,27,0,0,-1,0x3a0,-1,-1,-1,0 
1,3,684,0,0,20705,.SEL,20679,20696,4,2,1,0,0,0,1,0,3,0,-1,2,27,0,0,-1,0x3b0,-1,-1,-1,0 
1,3,685,0,0,20714,.ISETP.LT.AND,20696,20705,4,2,0,0,0,0,6,0,3,0,-1,2,27,0,0,-1,0x3c0,-1,-1,-1,0 
1,3,686,0,0,20715,.SEL,20696,20706,4,2,1,0,0,0,1,0,3,0,-1,2,27,0,0,-1,0x3d0,-1,-1,-1,0 
1,3,687,0,0,20716,.ISETP.NE.AND,20706,20707,4,2,0,0,0,0,6,0,3,0,-1,2,32,0,0,-1,0x3e0,-1,-1,-1,0 
1,3,673,0,0,20843,.LDG.E.SYS,20640,20649,1,1,1,1,0,4,8,0,6,0,-1,1,27,0,0,-1,0x300,-1,-1,-1,1 
1,3,688,0,0,20852,.IMAD.IADD,20706,20843,4,2,1,0,0,0,6,0,3,0,-1,2,27,0,0,-1,0x3f0,-1,-1,-1,0 
1,3,689,0,0,20853,.PRMT,20843,20844,4,2,1,0,0,0,1,0,3,0,-1,2,32,0,0,-1,0x400,-1,-1,-1,0 
1,3,691,0,0,20857,.STS,20853,20854,1,2,0,0,1,4,11,0,6,0,-1,1,27,0,0,-1,0x420,-1,-1,-1,0 
1,3,693,0,0,20861,.BAR.SYNC,20855,20856,1,0,0,0,0,0,13,0,3,0,-1,1,32,0,0,-1,0x440,1,-1,-1,0 
1,3,690,0,0,20862,.PRMT,20843,20853,4,2,1,0,0,0,1,0,3,0,-1,2,27,0,0,-1,0x410,-1,-1,-1,0 
1,3,692,0,0,20863,.NOP,20853,20855,4,0,0,0,0,0,1,0,3,0,-1,2,32,0,0,-1,0x430,-1,-1,-1,0 
1,3,694,0,0,20865,.BRA,20855,20857,4,0,0,0,0,0,100,0,7,0,-1,4,32,0,0,-1,0x450,-1,-1,-1,0 
1,3,696,0,0,20868,.EXIT,20857,20863,1,0,0,0,0,0,17,0,3,0,-1,1,5,0,0,-1,0x510,-1,-1,-1,0 
1,3,695,0,0,20872,.LOP3.LUT,20857,20862,4,3,0,0,0,0,6,0,3,0,-1,2,32,0,0,-1,0x500,-1,-1,-1,0 
1,3,697,0,0,20873,.IMAD.SHL.U32,20863,20864,4,2,1,0,0,0,6,0,3,0,-1,2,27,0,0,-1,0x520,-1,-1,-1,0 
1,3,698,0,0,20874,.IMAD.MOV.U32,20863,20865,4,2,1,0,0,0,6,0,3,0,-1,2,27,0,0,-1,0x530,-1,-1,-1,0 
1,3,699,0,0,20883,.IMAD.WIDE,20865,20874,4,2,1,0,0,0,6,0,3,0,-1,2,27,0,0,-1,0x540,-1,-1,-1,0 
1,3,700,0,0,20899,.LDS.U,20865,20875,1,1,1,1,0,4,8,0,6,0,-1,1,27,0,0,-1,0x550,-1,-1,-1,0 
1,3,702,0,0,20905,.EXIT,20875,20900,1,0,0,0,0,0,17,0,3,0,-1,1,27,0,0,-1,0x570,-1,-1,-1,0 
1,3,701,0,0,20905,.STG.E.SYS,20875,20899,1,2,0,0,1,4,11,0,6,0,-1,1,27,0,0,-1,0x560,-1,-1,-1,1 
Destroy streams for kernel 3: size 0


gpgpu_simulation_time = 0 days, 0 hrs, 0 min, 1 sec (1 sec)
gpgpu_simulation_rate = 20112 (inst/sec)
gpgpu_simulation_rate = 21093 (cycle/sec)
gpgpu_silicon_slowdown = 53667x
-kernel name = _Z14dynproc_kerneliPiS_S_iiii
-kernel id = 4
-grid dim = (5,1,1)
-block dim = (256,1,1)
-shmem = 2048
-nregs = 18
-binary version = 70
-cuda stream id = 0
-shmem base_addr = 0x00007f18c2000000
-local mem base_addr = 0x00007f18c4000000
-nvbit version = 1.4
-accelsim tracer version = 3
launching kernel command : /scratch/santosh/gpu_simulation/accel-sim-framework/traces/rodinia_2.0-ft/11.0/pathfinder-rodinia-2.0-ft/1000_20_5___data_result_1000_20_5_txt/traces/kernel-4.traceg
GPGPU-Sim uArch: Shader 0 bind to kernel 4 '_Z14dynproc_kerneliPiS_S_iiii'
GPGPU-Sim: Reconfigure L1 cache to 120KB
GPGPUsim: cta_size: 32
ctaid: 0, start warp: 0, end_warp: 1, start_thread: 0, end_thread: 32
thread block = 0,0,0
warp id: 0
warp id: 1
warp_id: 0, insts: 195
1,4,703,0,0,26104,.IMAD.MOV.U32,26094,26095,4,2,1,0,0,0,6,0,3,0,-1,2,32,0,0,-1,0,-1,-1,-1,0 
1,4,705,0,0,26105,.S2R,26096,26097,4,0,1,0,0,0,1,0,3,0,-1,2,32,0,0,-1,0x20,-1,-1,-1,0 
1,4,704,0,0,26106,.SHFL.IDX,26094,26096,4,4,0,0,0,0,1,0,3,0,-1,2,0,0,0,-1,0x10,-1,-1,-1,0 
1,4,706,0,0,26107,.IMAD.MOV,26096,26098,4,2,1,0,0,0,6,0,3,0,-1,2,32,0,0,-1,0x30,-1,-1,-1,0 
1,4,707,0,0,26108,.IMAD.MOV.U32,26098,26099,4,2,1,0,0,0,6,0,3,0,-1,2,32,0,0,-1,0x40,-1,-1,-1,0 
1,4,708,0,0,26108,.S2R,26098,26100,4,0,1,0,0,0,1,0,3,0,-1,2,32,0,0,-1,0x50,-1,-1,-1,0 
1,4,709,0,0,26116,.LEA,26100,26107,4,1,1,0,0,0,6,0,3,0,-1,2,32,0,0,-1,0x60,-1,-1,-1,0 
1,4,710,0,0,26117,.IADD3,26100,26108,4,2,1,0,0,0,6,0,3,0,-1,2,32,0,0,-1,0x70,-1,-1,-1,0 
1,4,711,0,0,26125,.IMAD,26108,26116,4,2,1,0,0,0,6,0,3,0,-1,2,32,0,0,-1,0x80,-1,-1,-1,0 
1,4,712,0,0,26134,.IMAD.IADD,26108,26125,4,2,1,0,0,0,6,0,3,0,-1,2,32,0,0,-1,0x90,-1,-1,-1,0 
1,4,713,0,0,26143,.ISETP.GT.AND,26125,26134,4,2,0,0,0,0,6,0,3,0,-1,2,32,0,0,-1,0xa0,-1,-1,-1,0 
1,4,714,0,0,26144,.ISETP.GT.AND,26125,26135,4,1,0,0,0,0,6,0,3,0,-1,2,32,0,0,-1,0xb0,-1,-1,-1,0 
1,4,715,0,0,26145,.IMAD.MOV.U32,26135,26136,4,2,1,0,0,0,6,0,3,0,-1,2,27,0,0,-1,0xc0,-1,-1,-1,0 
1,4,716,0,0,26154,.IMAD.WIDE,26135,26145,4,2,1,0,0,0,6,0,3,0,-1,2,27,0,0,-1,0xd0,-1,-1,-1,0 
1,4,718,0,0,26164,.IMAD.SHL.U32,26145,26155,4,2,1,0,0,0,6,0,3,0,-1,2,27,0,0,-1,0xf0,-1,-1,-1,0 
1,4,719,0,0,26165,.SHF.R.S32.HI,26155,26156,4,2,1,0,0,0,6,0,3,0,-1,2,32,0,0,-1,0x100,-1,-1,-1,0 
1,4,720,0,0,26166,.IMAD.MOV.U32,26155,26157,4,2,1,0,0,0,6,0,3,0,-1,2,32,0,0,-1,0x110,-1,-1,-1,0 
1,4,721,0,0,26168,.IMAD.MOV,26157,26158,4,3,1,0,0,0,6,0,3,0,-1,2,32,0,0,-1,0x120,-1,-1,-1,0 
1,4,722,0,0,26177,.LOP3.LUT,26157,26168,4,3,1,0,0,0,6,0,3,0,-1,2,32,0,0,-1,0x130,-1,-1,-1,0 
1,4,717,0,0,26349,.LDG.E.SYS,26145,26154,1,1,1,1,0,4,8,0,6,0,-1,1,27,0,0,-1,0xe0,-1,-1,-1,1 
1,4,723,0,0,26352,.STS,26168,26349,1,2,0,0,1,4,11,0,6,0,-1,1,27,0,0,-1,0x140,-1,-1,-1,0 
1,4,724,0,0,26359,.ISETP.LE.AND,26168,26350,4,1,0,0,0,0,6,0,3,0,-1,2,32,0,0,-1,0x150,-1,-1,-1,0 
1,4,725,0,0,26359,.BRA,26350,26351,4,0,0,0,0,0,100,0,7,0,-1,4,0,0,0,-1,0x160,-1,-1,-1,0 
1,4,726,0,0,26361,.IADD3,26350,26352,4,2,1,0,0,0,6,0,3,0,-1,2,32,0,0,-1,0x170,-1,-1,-1,0 
1,4,727,0,0,26362,.IMAD.MOV.U32,26352,26353,4,2,1,0,0,0,6,0,3,0,-1,2,32,0,0,-1,0x180,-1,-1,-1,0 
1,4,728,0,0,26363,.IADD3,26352,26354,4,2,1,0,0,0,6,0,3,0,-1,2,32,0,0,-1,0x190,-1,-1,-1,0 
1,4,729,0,0,26370,.IADD3,26354,26361,4,2,1,0,0,0,6,0,3,0,-1,2,32,0,0,-1,0x1a0,-1,-1,-1,0 
1,4,730,0,0,26372,.ISETP.GT.AND,26354,26363,4,2,0,0,0,0,6,0,3,0,-1,2,32,0,0,-1,0x1b0,-1,-1,-1,0 
1,4,731,0,0,26373,.IADD3,26363,26364,4,2,1,0,0,0,6,0,3,0,-1,2,32,0,0,-1,0x1c0,-1,-1,-1,0 
1,4,732,0,0,26379,.IADD3,26363,26370,4,2,1,0,0,0,6,0,3,0,-1,2,32,0,0,-1,0x1d0,-1,-1,-1,0 
1,4,733,0,0,26380,.IMAD,26370,26371,4,2,1,0,0,0,6,0,3,0,-1,2,32,0,0,-1,0x1e0,-1,-1,-1,0 
1,4,734,0,0,26382,.ISETP.LT.AND,26370,26373,4,2,0,0,0,0,6,0,3,0,-1,2,32,0,0,-1,0x1f0,-1,-1,-1,0 
1,4,735,0,0,26383,.ISETP.GE.AND,26373,26374,4,2,0,0,0,0,6,0,3,0,-1,2,32,0,0,-1,0x200,-1,-1,-1,0 
1,4,736,0,0,26389,.IMAD,26373,26380,4,3,1,0,0,0,6,0,3,0,-1,2,32,0,0,-1,0x210,-1,-1,-1,0 
1,4,737,0,0,26390,.SEL,26380,26381,4,2,1,0,0,0,1,0,3,0,-1,2,32,0,0,-1,0x220,-1,-1,-1,0 
1,4,738,0,0,26392,.IMAD.MOV.U32,26380,26382,4,3,1,0,0,0,6,0,3,0,-1,2,32,0,0,-1,0x230,-1,-1,-1,0 
1,4,739,0,0,26392,.SEL,26382,26383,4,1,1,0,0,0,1,0,3,0,-1,2,32,0,0,-1,0x240,-1,-1,-1,0 
1,4,740,0,0,26393,.IADD3,26382,26384,4,2,1,0,0,0,6,0,3,0,-1,2,32,0,0,-1,0x250,-1,-1,-1,0 
1,4,741,0,0,26400,.IMAD.SHL.U32,26384,26390,4,2,1,0,0,0,6,0,3,0,-1,2,32,0,0,-1,0x260,-1,-1,-1,0 
1,4,742,0,0,26401,.ISETP.LE.AND,26384,26392,4,2,0,0,0,0,6,0,3,0,-1,2,32,0,0,-1,0x270,-1,-1,-1,0 
1,4,743,0,0,26402,.IADD3,26392,26393,4,2,1,0,0,0,6,0,3,0,-1,2,32,0,0,-1,0x280,-1,-1,-1,0 
1,4,744,0,0,26403,.IADD3,26392,26394,4,2,1,0,0,0,6,0,3,0,-1,2,32,0,0,-1,0x290,-1,-1,-1,0 
1,4,745,0,0,26404,.IADD3,26394,26395,4,2,1,0,0,0,6,0,3,0,-1,2,32,0,0,-1,0x2a0,-1,-1,-1,0 
1,4,746,0,0,26412,.ISETP.GE.AND,26394,26403,4,2,0,0,0,0,6,0,3,0,-1,2,32,0,0,-1,0x2b0,-1,-1,-1,0 
1,4,747,0,0,26413,.ISETP.LE.AND,26403,26404,4,2,0,0,0,0,6,0,3,0,-1,2,32,0,0,-1,0x2c0,-1,-1,-1,0 
1,4,748,0,0,26413,.PLOP3.LUT,26403,26405,4,0,0,0,0,0,1,0,3,0,-1,2,32,0,0,-1,0x2d0,-1,-1,-1,0 
1,4,749,0,0,26415,.IMAD.MOV.U32,26405,26406,4,2,1,0,0,0,6,0,3,0,-1,2,27,0,0,-1,0x2e0,-1,-1,-1,0 
1,4,750,0,0,26424,.IMAD.WIDE,26405,26415,4,2,1,0,0,0,6,0,3,0,-1,2,27,0,0,-1,0x2f0,-1,-1,-1,0 
1,4,752,0,0,26434,.ISETP.GE.AND,26415,26425,4,2,0,0,0,0,6,0,3,0,-1,2,27,0,0,-1,0x310,-1,-1,-1,0 
1,4,753,0,0,26435,.IMAD.SHL.U32,26425,26426,4,2,1,0,0,0,6,0,3,0,-1,2,27,0,0,-1,0x320,-1,-1,-1,0 
1,4,754,0,0,26436,.IADD3,26425,26427,4,2,1,0,0,0,6,0,3,0,-1,2,27,0,0,-1,0x330,-1,-1,-1,0 
1,4,755,0,0,26445,.SEL,26427,26436,4,2,1,0,0,0,1,0,3,0,-1,2,27,0,0,-1,0x340,-1,-1,-1,0 
1,4,756,0,0,26446,.IMAD.MOV.U32,26427,26437,4,2,1,0,0,0,6,0,3,0,-1,2,32,0,0,-1,0x350,-1,-1,-1,0 
1,4,758,0,0,26454,.IMAD.SHL.U32,26437,26445,4,2,1,0,0,0,6,0,3,0,-1,2,27,0,0,-1,0x370,-1,-1,-1,0 
1,4,757,0,0,26462,.LDS.U,26437,26438,1,1,1,1,0,4,8,0,6,0,-1,1,27,0,0,-1,0x360,-1,-1,-1,0 
1,4,759,0,0,26470,.LDS.U,26445,26446,1,1,1,1,0,4,8,0,6,0,-1,1,27,0,0,-1,0x380,-1,-1,-1,0 
1,4,760,0,0,26478,.LDS.U,26445,26454,1,1,1,1,0,4,8,0,6,0,-1,1,27,0,0,-1,0x390,-1,-1,-1,0 
1,4,761,0,0,26479,.ISETP.LT.AND,26454,26470,4,2,0,0,0,0,6,0,3,0,-1,2,27,0,0,-1,0x3a0,-1,-1,-1,0 
1,4,762,0,0,26480,.SEL,26454,26471,4,2,1,0,0,0,1,0,3,0,-1,2,27,0,0,-1,0x3b0,-1,-1,-1,0 
1,4,763,0,0,26489,.ISETP.LT.AND,26471,26480,4,2,0,0,0,0,6,0,3,0,-1,2,27,0,0,-1,0x3c0,-1,-1,-1,0 
1,4,764,0,0,26490,.SEL,26471,26481,4,2,1,0,0,0,1,0,3,0,-1,2,27,0,0,-1,0x3d0,-1,-1,-1,0 
1,4,765,0,0,26491,.ISETP.NE.AND,26481,26482,4,2,0,0,0,0,6,0,3,0,-1,2,32,0,0,-1,0x3e0,-1,-1,-1,0 
1,4,751,0,0,26618,.LDG.E.SYS,26415,26424,1,1,1,1,0,4,8,0,6,0,-1,1,27,0,0,-1,0x300,-1,-1,-1,1 
1,4,766,0,0,26627,.IMAD.IADD,26481,26618,4,2,1,0,0,0,6,0,3,0,-1,2,27,0,0,-1,0x3f0,-1,-1,-1,0 
1,4,767,0,0,26628,.PRMT,26618,26619,4,2,1,0,0,0,1,0,3,0,-1,2,32,0,0,-1,0x400,-1,-1,-1,0 
1,4,769,0,0,26632,.STS,26628,26629,1,2,0,0,1,4,11,0,6,0,-1,1,27,0,0,-1,0x420,-1,-1,-1,0 
1,4,771,0,0,26636,.BAR.SYNC,26630,26631,1,0,0,0,0,0,13,0,3,0,-1,1,32,0,0,-1,0x440,1,-1,-1,0 
1,4,768,0,0,26637,.PRMT,26618,26628,4,2,1,0,0,0,1,0,3,0,-1,2,27,0,0,-1,0x410,-1,-1,-1,0 
1,4,770,0,0,26638,.NOP,26628,26630,4,0,0,0,0,0,1,0,3,0,-1,2,32,0,0,-1,0x430,-1,-1,-1,0 
1,4,772,0,0,26640,.BRA,26630,26632,4,0,0,0,0,0,100,0,7,0,-1,4,0,0,0,-1,0x450,-1,-1,-1,0 
1,4,773,0,0,26646,.PRMT,26632,26637,4,2,1,0,0,0,1,0,3,0,-1,2,32,0,0,-1,0x460,-1,-1,-1,0 
1,4,774,0,0,26647,.IADD3,26632,26638,4,2,1,0,0,0,6,0,3,0,-1,2,32,0,0,-1,0x470,-1,-1,-1,0 
1,4,775,0,0,26655,.ISETP.NE.AND,26638,26646,4,2,0,0,0,0,6,0,3,0,-1,2,32,0,0,-1,0x480,-1,-1,-1,0 
1,4,776,0,0,26656,.IMAD.MOV.U32,26638,26647,4,3,1,0,0,0,6,0,3,0,-1,2,32,0,0,-1,0x490,-1,-1,-1,0 
1,4,777,0,0,26657,.IADD3,26647,26648,4,2,1,0,0,0,6,0,3,0,-1,2,32,0,0,-1,0x4a0,-1,-1,-1,0 
1,4,778,0,0,26658,.IMAD.SHL.U32,26647,26649,4,2,1,0,0,0,6,0,3,0,-1,2,27,0,0,-1,0x4b0,-1,-1,-1,0 
1,4,779,0,0,26682,.LDS.U,26649,26658,1,1,1,1,0,4,8,0,6,0,-1,1,27,0,0,-1,0x4c0,-1,-1,-1,0 
1,4,780,0,0,26685,.STS,26649,26682,1,2,0,0,1,4,11,0,6,0,-1,1,27,0,0,-1,0x4d0,-1,-1,-1,0 
1,4,781,0,0,26692,.ISETP.GE.AND,26682,26683,4,1,0,0,0,0,6,0,3,0,-1,2,32,0,0,-1,0x4e0,-1,-1,-1,0 
1,4,782,0,0,26692,.BRA,26682,26684,4,0,0,0,0,0,100,0,7,0,-1,4,32,0,0,-1,0x4f0,-1,-1,-1,0 
1,4,783,0,0,26694,.IADD3,26684,26685,4,2,1,0,0,0,6,0,3,0,-1,2,32,0,0,-1,0x290,-1,-1,-1,0 
1,4,784,0,0,26695,.IADD3,26684,26686,4,2,1,0,0,0,6,0,3,0,-1,2,32,0,0,-1,0x2a0,-1,-1,-1,0 
1,4,785,0,0,26703,.ISETP.GE.AND,26686,26694,4,2,0,0,0,0,6,0,3,0,-1,2,32,0,0,-1,0x2b0,-1,-1,-1,0 
1,4,786,0,0,26704,.ISETP.LE.AND,26686,26695,4,2,0,0,0,0,6,0,3,0,-1,2,32,0,0,-1,0x2c0,-1,-1,-1,0 
1,4,787,0,0,26704,.PLOP3.LUT,26695,26696,4,0,0,0,0,0,1,0,3,0,-1,2,32,0,0,-1,0x2d0,-1,-1,-1,0 
1,4,788,0,0,26706,.IMAD.MOV.U32,26695,26697,4,2,1,0,0,0,6,0,3,0,-1,2,27,0,0,-1,0x2e0,-1,-1,-1,0 
1,4,789,0,0,26715,.IMAD.WIDE,26697,26706,4,2,1,0,0,0,6,0,3,0,-1,2,27,0,0,-1,0x2f0,-1,-1,-1,0 
1,4,791,0,0,26725,.ISETP.GE.AND,26715,26716,4,2,0,0,0,0,6,0,3,0,-1,2,27,0,0,-1,0x310,-1,-1,-1,0 
1,4,792,0,0,26726,.IMAD.SHL.U32,26715,26717,4,2,1,0,0,0,6,0,3,0,-1,2,27,0,0,-1,0x320,-1,-1,-1,0 
1,4,793,0,0,26727,.IADD3,26717,26718,4,2,1,0,0,0,6,0,3,0,-1,2,27,0,0,-1,0x330,-1,-1,-1,0 
1,4,794,0,0,26736,.SEL,26717,26727,4,2,1,0,0,0,1,0,3,0,-1,2,27,0,0,-1,0x340,-1,-1,-1,0 
1,4,795,0,0,26737,.IMAD.MOV.U32,26727,26728,4,2,1,0,0,0,6,0,3,0,-1,2,32,0,0,-1,0x350,-1,-1,-1,0 
1,4,797,0,0,26745,.IMAD.SHL.U32,26729,26736,4,2,1,0,0,0,6,0,3,0,-1,2,27,0,0,-1,0x370,-1,-1,-1,0 
1,4,796,0,0,26753,.LDS.U,26727,26729,1,1,1,1,0,4,8,0,6,0,-1,1,27,0,0,-1,0x360,-1,-1,-1,0 
1,4,798,0,0,26761,.LDS.U,26729,26737,1,1,1,1,0,4,8,0,6,0,-1,1,27,0,0,-1,0x380,-1,-1,-1,0 
1,4,799,0,0,26769,.LDS.U,26737,26745,1,1,1,1,0,4,8,0,6,0,-1,1,27,0,0,-1,0x390,-1,-1,-1,0 
1,4,800,0,0,26770,.ISETP.LT.AND,26737,26761,4,2,0,0,0,0,6,0,3,0,-1,2,27,0,0,-1,0x3a0,-1,-1,-1,0 
1,4,801,0,0,26771,.SEL,26761,26762,4,2,1,0,0,0,1,0,3,0,-1,2,27,0,0,-1,0x3b0,-1,-1,-1,0 
1,4,802,0,0,26780,.ISETP.LT.AND,26761,26771,4,2,0,0,0,0,6,0,3,0,-1,2,27,0,0,-1,0x3c0,-1,-1,-1,0 
1,4,803,0,0,26781,.SEL,26771,26772,4,2,1,0,0,0,1,0,3,0,-1,2,27,0,0,-1,0x3d0,-1,-1,-1,0 
1,4,804,0,0,26782,.ISETP.NE.AND,26771,26773,4,2,0,0,0,0,6,0,3,0,-1,2,32,0,0,-1,0x3e0,-1,-1,-1,0 
1,4,790,0,0,26909,.LDG.E.SYS,26697,26715,1,1,1,1,0,4,8,0,6,0,-1,1,27,0,0,-1,0x300,-1,-1,-1,1 
1,4,805,0,0,26918,.IMAD.IADD,26773,26909,4,2,1,0,0,0,6,0,3,0,-1,2,27,0,0,-1,0x3f0,-1,-1,-1,0 
1,4,806,0,0,26919,.PRMT,26773,26910,4,2,1,0,0,0,1,0,3,0,-1,2,32,0,0,-1,0x400,-1,-1,-1,0 
1,4,808,0,0,26923,.STS,26910,26920,1,2,0,0,1,4,11,0,6,0,-1,1,27,0,0,-1,0x420,-1,-1,-1,0 
1,4,810,0,0,26927,.BAR.SYNC,26920,26922,1,0,0,0,0,0,13,0,3,0,-1,1,32,0,0,-1,0x440,1,-1,-1,0 
1,4,807,0,0,26928,.PRMT,26910,26919,4,2,1,0,0,0,1,0,3,0,-1,2,27,0,0,-1,0x410,-1,-1,-1,0 
1,4,809,0,0,26929,.NOP,26920,26921,4,0,0,0,0,0,1,0,3,0,-1,2,32,0,0,-1,0x430,-1,-1,-1,0 
1,4,811,0,0,26931,.BRA,26922,26923,4,0,0,0,0,0,100,0,7,0,-1,4,0,0,0,-1,0x450,-1,-1,-1,0 
1,4,812,0,0,26937,.PRMT,26922,26928,4,2,1,0,0,0,1,0,3,0,-1,2,32,0,0,-1,0x460,-1,-1,-1,0 
1,4,813,0,0,26938,.IADD3,26928,26929,4,2,1,0,0,0,6,0,3,0,-1,2,32,0,0,-1,0x470,-1,-1,-1,0 
1,4,814,0,0,26946,.ISETP.NE.AND,26928,26937,4,2,0,0,0,0,6,0,3,0,-1,2,32,0,0,-1,0x480,-1,-1,-1,0 
1,4,815,0,0,26947,.IMAD.MOV.U32,26937,26938,4,3,1,0,0,0,6,0,3,0,-1,2,32,0,0,-1,0x490,-1,-1,-1,0 
1,4,816,0,0,26948,.IADD3,26937,26939,4,2,1,0,0,0,6,0,3,0,-1,2,32,0,0,-1,0x4a0,-1,-1,-1,0 
1,4,817,0,0,26949,.IMAD.SHL.U32,26939,26940,4,2,1,0,0,0,6,0,3,0,-1,2,27,0,0,-1,0x4b0,-1,-1,-1,0 
1,4,818,0,0,26973,.LDS.U,26939,26949,1,1,1,1,0,4,8,0,6,0,-1,1,27,0,0,-1,0x4c0,-1,-1,-1,0 
1,4,819,0,0,26976,.STS,26949,26973,1,2,0,0,1,4,11,0,6,0,-1,1,27,0,0,-1,0x4d0,-1,-1,-1,0 
1,4,820,0,0,26983,.ISETP.GE.AND,26949,26974,4,1,0,0,0,0,6,0,3,0,-1,2,32,0,0,-1,0x4e0,-1,-1,-1,0 
1,4,821,0,0,26983,.BRA,26974,26975,4,0,0,0,0,0,100,0,7,0,-1,4,32,0,0,-1,0x4f0,-1,-1,-1,0 
1,4,822,0,0,26985,.IADD3,26974,26976,4,2,1,0,0,0,6,0,3,0,-1,2,32,0,0,-1,0x290,-1,-1,-1,0 
1,4,823,0,0,26986,.IADD3,26976,26977,4,2,1,0,0,0,6,0,3,0,-1,2,32,0,0,-1,0x2a0,-1,-1,-1,0 
1,4,824,0,0,26994,.ISETP.GE.AND,26976,26985,4,2,0,0,0,0,6,0,3,0,-1,2,32,0,0,-1,0x2b0,-1,-1,-1,0 
1,4,825,0,0,26995,.ISETP.LE.AND,26985,26986,4,2,0,0,0,0,6,0,3,0,-1,2,32,0,0,-1,0x2c0,-1,-1,-1,0 
1,4,826,0,0,26995,.PLOP3.LUT,26985,26987,4,0,0,0,0,0,1,0,3,0,-1,2,32,0,0,-1,0x2d0,-1,-1,-1,0 
1,4,827,0,0,26997,.IMAD.MOV.U32,26987,26988,4,2,1,0,0,0,6,0,3,0,-1,2,27,0,0,-1,0x2e0,-1,-1,-1,0 
1,4,828,0,0,27006,.IMAD.WIDE,26987,26997,4,2,1,0,0,0,6,0,3,0,-1,2,27,0,0,-1,0x2f0,-1,-1,-1,0 
1,4,830,0,0,27016,.ISETP.GE.AND,26997,27007,4,2,0,0,0,0,6,0,3,0,-1,2,27,0,0,-1,0x310,-1,-1,-1,0 
1,4,831,0,0,27017,.IMAD.SHL.U32,27007,27008,4,2,1,0,0,0,6,0,3,0,-1,2,27,0,0,-1,0x320,-1,-1,-1,0 
1,4,832,0,0,27018,.IADD3,27007,27009,4,2,1,0,0,0,6,0,3,0,-1,2,27,0,0,-1,0x330,-1,-1,-1,0 
1,4,833,0,0,27027,.SEL,27009,27018,4,2,1,0,0,0,1,0,3,0,-1,2,27,0,0,-1,0x340,-1,-1,-1,0 
1,4,834,0,0,27028,.IMAD.MOV.U32,27009,27019,4,2,1,0,0,0,6,0,3,0,-1,2,32,0,0,-1,0x350,-1,-1,-1,0 
1,4,836,0,0,27036,.IMAD.SHL.U32,27019,27027,4,2,1,0,0,0,6,0,3,0,-1,2,27,0,0,-1,0x370,-1,-1,-1,0 
1,4,835,0,0,27044,.LDS.U,27019,27020,1,1,1,1,0,4,8,0,6,0,-1,1,27,0,0,-1,0x360,-1,-1,-1,0 
1,4,837,0,0,27052,.LDS.U,27027,27028,1,1,1,1,0,4,8,0,6,0,-1,1,27,0,0,-1,0x380,-1,-1,-1,0 
1,4,838,0,0,27060,.LDS.U,27027,27036,1,1,1,1,0,4,8,0,6,0,-1,1,27,0,0,-1,0x390,-1,-1,-1,0 
1,4,839,0,0,27061,.ISETP.LT.AND,27036,27052,4,2,0,0,0,0,6,0,3,0,-1,2,27,0,0,-1,0x3a0,-1,-1,-1,0 
1,4,840,0,0,27062,.SEL,27036,27053,4,2,1,0,0,0,1,0,3,0,-1,2,27,0,0,-1,0x3b0,-1,-1,-1,0 
1,4,841,0,0,27071,.ISETP.LT.AND,27053,27062,4,2,0,0,0,0,6,0,3,0,-1,2,27,0,0,-1,0x3c0,-1,-1,-1,0 
1,4,842,0,0,27072,.SEL,27053,27063,4,2,1,0,0,0,1,0,3,0,-1,2,27,0,0,-1,0x3d0,-1,-1,-1,0 
1,4,843,0,0,27073,.ISETP.NE.AND,27063,27064,4,2,0,0,0,0,6,0,3,0,-1,2,32,0,0,-1,0x3e0,-1,-1,-1,0 
1,4,829,0,0,27200,.LDG.E.SYS,26997,27006,1,1,1,1,0,4,8,0,6,0,-1,1,27,0,0,-1,0x300,-1,-1,-1,1 
1,4,844,0,0,27209,.IMAD.IADD,27063,27200,4,2,1,0,0,0,6,0,3,0,-1,2,27,0,0,-1,0x3f0,-1,-1,-1,0 
1,4,845,0,0,27210,.PRMT,27200,27201,4,2,1,0,0,0,1,0,3,0,-1,2,32,0,0,-1,0x400,-1,-1,-1,0 
1,4,847,0,0,27214,.STS,27210,27211,1,2,0,0,1,4,11,0,6,0,-1,1,27,0,0,-1,0x420,-1,-1,-1,0 
1,4,849,0,0,27218,.BAR.SYNC,27212,27213,1,0,0,0,0,0,13,0,3,0,-1,1,32,0,0,-1,0x440,1,-1,-1,0 
1,4,846,0,0,27219,.PRMT,27200,27210,4,2,1,0,0,0,1,0,3,0,-1,2,27,0,0,-1,0x410,-1,-1,-1,0 
1,4,848,0,0,27220,.NOP,27210,27212,4,0,0,0,0,0,1,0,3,0,-1,2,32,0,0,-1,0x430,-1,-1,-1,0 
1,4,850,0,0,27222,.BRA,27212,27214,4,0,0,0,0,0,100,0,7,0,-1,4,0,0,0,-1,0x450,-1,-1,-1,0 
1,4,851,0,0,27228,.PRMT,27214,27219,4,2,1,0,0,0,1,0,3,0,-1,2,32,0,0,-1,0x460,-1,-1,-1,0 
1,4,852,0,0,27229,.IADD3,27214,27220,4,2,1,0,0,0,6,0,3,0,-1,2,32,0,0,-1,0x470,-1,-1,-1,0 
1,4,853,0,0,27237,.ISETP.NE.AND,27220,27228,4,2,0,0,0,0,6,0,3,0,-1,2,32,0,0,-1,0x480,-1,-1,-1,0 
1,4,854,0,0,27238,.IMAD.MOV.U32,27220,27229,4,3,1,0,0,0,6,0,3,0,-1,2,32,0,0,-1,0x490,-1,-1,-1,0 
1,4,855,0,0,27239,.IADD3,27229,27230,4,2,1,0,0,0,6,0,3,0,-1,2,32,0,0,-1,0x4a0,-1,-1,-1,0 
1,4,856,0,0,27240,.IMAD.SHL.U32,27229,27231,4,2,1,0,0,0,6,0,3,0,-1,2,27,0,0,-1,0x4b0,-1,-1,-1,0 
1,4,857,0,0,27264,.LDS.U,27231,27240,1,1,1,1,0,4,8,0,6,0,-1,1,27,0,0,-1,0x4c0,-1,-1,-1,0 
1,4,858,0,0,27267,.STS,27231,27264,1,2,0,0,1,4,11,0,6,0,-1,1,27,0,0,-1,0x4d0,-1,-1,-1,0 
1,4,859,0,0,27274,.ISETP.GE.AND,27264,27265,4,1,0,0,0,0,6,0,3,0,-1,2,32,0,0,-1,0x4e0,-1,-1,-1,0 
1,4,860,0,0,27274,.BRA,27264,27266,4,0,0,0,0,0,100,0,7,0,-1,4,32,0,0,-1,0x4f0,-1,-1,-1,0 
1,4,861,0,0,27276,.IADD3,27266,27267,4,2,1,0,0,0,6,0,3,0,-1,2,32,0,0,-1,0x290,-1,-1,-1,0 
1,4,862,0,0,27277,.IADD3,27266,27268,4,2,1,0,0,0,6,0,3,0,-1,2,32,0,0,-1,0x2a0,-1,-1,-1,0 
1,4,863,0,0,27285,.ISETP.GE.AND,27268,27276,4,2,0,0,0,0,6,0,3,0,-1,2,32,0,0,-1,0x2b0,-1,-1,-1,0 
1,4,864,0,0,27286,.ISETP.LE.AND,27268,27277,4,2,0,0,0,0,6,0,3,0,-1,2,32,0,0,-1,0x2c0,-1,-1,-1,0 
1,4,865,0,0,27286,.PLOP3.LUT,27277,27278,4,0,0,0,0,0,1,0,3,0,-1,2,32,0,0,-1,0x2d0,-1,-1,-1,0 
1,4,866,0,0,27288,.IMAD.MOV.U32,27277,27279,4,2,1,0,0,0,6,0,3,0,-1,2,27,0,0,-1,0x2e0,-1,-1,-1,0 
1,4,867,0,0,27297,.IMAD.WIDE,27279,27288,4,2,1,0,0,0,6,0,3,0,-1,2,27,0,0,-1,0x2f0,-1,-1,-1,0 
1,4,869,0,0,27307,.ISETP.GE.AND,27297,27298,4,2,0,0,0,0,6,0,3,0,-1,2,27,0,0,-1,0x310,-1,-1,-1,0 
1,4,870,0,0,27308,.IMAD.SHL.U32,27297,27299,4,2,1,0,0,0,6,0,3,0,-1,2,27,0,0,-1,0x320,-1,-1,-1,0 
1,4,871,0,0,27309,.IADD3,27299,27300,4,2,1,0,0,0,6,0,3,0,-1,2,27,0,0,-1,0x330,-1,-1,-1,0 
1,4,872,0,0,27318,.SEL,27299,27309,4,2,1,0,0,0,1,0,3,0,-1,2,27,0,0,-1,0x340,-1,-1,-1,0 
1,4,873,0,0,27319,.IMAD.MOV.U32,27309,27310,4,2,1,0,0,0,6,0,3,0,-1,2,32,0,0,-1,0x350,-1,-1,-1,0 
1,4,875,0,0,27327,.IMAD.SHL.U32,27311,27318,4,2,1,0,0,0,6,0,3,0,-1,2,27,0,0,-1,0x370,-1,-1,-1,0 
1,4,874,0,0,27335,.LDS.U,27309,27311,1,1,1,1,0,4,8,0,6,0,-1,1,27,0,0,-1,0x360,-1,-1,-1,0 
1,4,876,0,0,27343,.LDS.U,27311,27319,1,1,1,1,0,4,8,0,6,0,-1,1,27,0,0,-1,0x380,-1,-1,-1,0 
1,4,877,0,0,27351,.LDS.U,27319,27327,1,1,1,1,0,4,8,0,6,0,-1,1,27,0,0,-1,0x390,-1,-1,-1,0 
1,4,878,0,0,27352,.ISETP.LT.AND,27319,27343,4,2,0,0,0,0,6,0,3,0,-1,2,27,0,0,-1,0x3a0,-1,-1,-1,0 
1,4,879,0,0,27353,.SEL,27343,27344,4,2,1,0,0,0,1,0,3,0,-1,2,27,0,0,-1,0x3b0,-1,-1,-1,0 
1,4,880,0,0,27362,.ISETP.LT.AND,27343,27353,4,2,0,0,0,0,6,0,3,0,-1,2,27,0,0,-1,0x3c0,-1,-1,-1,0 
1,4,881,0,0,27363,.SEL,27353,27354,4,2,1,0,0,0,1,0,3,0,-1,2,27,0,0,-1,0x3d0,-1,-1,-1,0 
1,4,882,0,0,27364,.ISETP.NE.AND,27353,27355,4,2,0,0,0,0,6,0,3,0,-1,2,32,0,0,-1,0x3e0,-1,-1,-1,0 
1,4,868,0,0,27491,.LDG.E.SYS,27279,27297,1,1,1,1,0,4,8,0,6,0,-1,1,27,0,0,-1,0x300,-1,-1,-1,1 
1,4,883,0,0,27500,.IMAD.IADD,27355,27491,4,2,1,0,0,0,6,0,3,0,-1,2,27,0,0,-1,0x3f0,-1,-1,-1,0 
1,4,884,0,0,27501,.PRMT,27355,27492,4,2,1,0,0,0,1,0,3,0,-1,2,32,0,0,-1,0x400,-1,-1,-1,0 
1,4,886,0,0,27505,.STS,27492,27502,1,2,0,0,1,4,11,0,6,0,-1,1,27,0,0,-1,0x420,-1,-1,-1,0 
1,4,888,0,0,27509,.BAR.SYNC,27502,27504,1,0,0,0,0,0,13,0,3,0,-1,1,32,0,0,-1,0x440,1,-1,-1,0 
1,4,885,0,0,27510,.PRMT,27492,27501,4,2,1,0,0,0,1,0,3,0,-1,2,27,0,0,-1,0x410,-1,-1,-1,0 
1,4,887,0,0,27511,.NOP,27502,27503,4,0,0,0,0,0,1,0,3,0,-1,2,32,0,0,-1,0x430,-1,-1,-1,0 
1,4,889,0,0,27513,.BRA,27504,27505,4,0,0,0,0,0,100,0,7,0,-1,4,32,0,0,-1,0x450,-1,-1,-1,0 
1,4,891,0,0,27516,.EXIT,27510,27511,1,0,0,0,0,0,17,0,3,0,-1,1,5,0,0,-1,0x510,-1,-1,-1,0 
1,4,890,0,0,27520,.LOP3.LUT,27504,27510,4,3,0,0,0,0,6,0,3,0,-1,2,32,0,0,-1,0x500,-1,-1,-1,0 
1,4,892,0,0,27521,.IMAD.SHL.U32,27510,27512,4,2,1,0,0,0,6,0,3,0,-1,2,27,0,0,-1,0x520,-1,-1,-1,0 
1,4,893,0,0,27522,.IMAD.MOV.U32,27512,27513,4,2,1,0,0,0,6,0,3,0,-1,2,27,0,0,-1,0x530,-1,-1,-1,0 
1,4,894,0,0,27531,.IMAD.WIDE,27512,27522,4,2,1,0,0,0,6,0,3,0,-1,2,27,0,0,-1,0x540,-1,-1,-1,0 
1,4,895,0,0,27547,.LDS.U,27522,27523,1,1,1,1,0,4,8,0,6,0,-1,1,27,0,0,-1,0x550,-1,-1,-1,0 
1,4,897,0,0,27553,.EXIT,27547,27548,1,0,0,0,0,0,17,0,3,0,-1,1,27,0,0,-1,0x570,-1,-1,-1,0 
1,4,896,0,0,27553,.STG.E.SYS,27522,27547,1,2,0,0,1,4,11,0,6,0,-1,1,27,0,0,-1,0x560,-1,-1,-1,1 
Destroy streams for kernel 4: size 0


gpgpu_simulation_time = 0 days, 0 hrs, 0 min, 2 sec (2 sec)
gpgpu_simulation_rate = 12852 (inst/sec)
gpgpu_simulation_rate = 13870 (cycle/sec)
gpgpu_silicon_slowdown = 81614x
GPGPU-Sim: *** simulation thread exiting ***
GPGPU-Sim: *** exit detected ***
