

        *** GPGPU-Sim Simulator Version 4.0.0  [build gpgpu-sim_git-commit-90ec3399763d7c8512cfe7dc193473086c38ca38_modified_13.0] ***


DRAM Timing Options:
nbk                                    16 # number of banks
CCD                                     1 # column to column delay
RRD                                     3 # minimal delay between activation of rows in different banks
RCD                                    12 # row to column delay
RAS                                    28 # time needed to activate row
RP                                     12 # time needed to precharge (deactivate) row
RC                                     40 # row cycle time
CDLR                                    3 # switching from write to read (changes tWTR)
WR                                     10 # last data-in to row precharge
CL                                     12 # CAS latency
WL                                      2 # Write latency
nbkgrp                                  4 # number of bank groups
CCDL                                    2 # column to column delay between accesses to different bank groups
RTPL                                    3 # read to precharge delay between accesses to different bank groups
addr_dec_mask[CHIP]  = 0000000000001f00 	high:13 low:8
addr_dec_mask[BK]    = 00000000000e2000 	high:20 low:13
addr_dec_mask[ROW]   = 00000001fff00000 	high:33 low:20
addr_dec_mask[COL]   = 000000000001c0ff 	high:17 low:0
addr_dec_mask[BURST] = 000000000000001f 	high:5 low:0
sub_partition_id_mask = 0000000000002000
GPGPU-Sim uArch: clock freqs: 1132000000.000000:1132000000.000000:1132000000.000000:850000000.000000
GPGPU-Sim uArch: clock periods: 0.00000000088339222615:0.00000000088339222615:0.00000000088339222615:0.00000000117647058824
*** Initializing Memory Statistics ***
GPGPU-Sim uArch: performance model initialization complete.
launching memcpy command : MemcpyHtoD,0x00007fc725700000,65536
-kernel name = _Z11srad_cuda_1PfS_S_S_S_S_iif
-kernel id = 1
-grid dim = (8,8,1)
-block dim = (16,16,1)
-shmem = 6144
-nregs = 22
-binary version = 70
-cuda stream id = 0
-shmem base_addr = 0x00007fc75b000000
-local mem base_addr = 0x00007fc75d000000
-nvbit version = 1.4
-accelsim tracer version = 3
launching kernel command : /scratch/santosh/gpu_simulation/accel-sim-framework/traces/rodinia_2.0-ft/11.0/srad_v2-rodinia-2.0-ft/__data_matrix128x128_txt_0_127_0_127__5_2___data_result_matrix128x128_1_150_1_100__5_2_txt/traces/kernel-1.traceg

******sim cycle: 0, clock mask: 15*******

******sim cycle: 1, clock mask: 11*******

******sim cycle: 2, clock mask: 4*******

******sim cycle: 2, clock mask: 11*******

******sim cycle: 3, clock mask: 4*******

******sim cycle: 3, clock mask: 11*******

******sim cycle: 4, clock mask: 4*******

******sim cycle: 4, clock mask: 11*******

******sim cycle: 5, clock mask: 11*******

******sim cycle: 6, clock mask: 4*******

******sim cycle: 6, clock mask: 11*******

******sim cycle: 7, clock mask: 4*******

******sim cycle: 7, clock mask: 11*******

******sim cycle: 8, clock mask: 4*******

******sim cycle: 8, clock mask: 11*******

******sim cycle: 9, clock mask: 11*******

******sim cycle: 10, clock mask: 4*******

******sim cycle: 10, clock mask: 11*******

******sim cycle: 11, clock mask: 4*******

******sim cycle: 11, clock mask: 11*******

******sim cycle: 12, clock mask: 4*******

******sim cycle: 12, clock mask: 11*******

******sim cycle: 13, clock mask: 11*******

******sim cycle: 14, clock mask: 4*******

******sim cycle: 14, clock mask: 11*******

******sim cycle: 15, clock mask: 4*******

******sim cycle: 15, clock mask: 11*******

******sim cycle: 16, clock mask: 4*******

******sim cycle: 16, clock mask: 11*******

******sim cycle: 17, clock mask: 11*******

******sim cycle: 18, clock mask: 4*******

******sim cycle: 18, clock mask: 11*******

******sim cycle: 19, clock mask: 4*******

******sim cycle: 19, clock mask: 11*******

******sim cycle: 20, clock mask: 4*******

******sim cycle: 20, clock mask: 11*******

******sim cycle: 21, clock mask: 11*******

******sim cycle: 22, clock mask: 4*******

******sim cycle: 22, clock mask: 11*******

******sim cycle: 23, clock mask: 4*******

******sim cycle: 23, clock mask: 11*******

******sim cycle: 24, clock mask: 4*******

******sim cycle: 24, clock mask: 11*******

******sim cycle: 25, clock mask: 11*******

******sim cycle: 26, clock mask: 4*******

******sim cycle: 26, clock mask: 11*******

******sim cycle: 27, clock mask: 4*******

******sim cycle: 27, clock mask: 11*******

******sim cycle: 28, clock mask: 4*******

******sim cycle: 28, clock mask: 11*******

******sim cycle: 29, clock mask: 11*******

******sim cycle: 30, clock mask: 4*******

******sim cycle: 30, clock mask: 11*******

******sim cycle: 31, clock mask: 4*******

******sim cycle: 31, clock mask: 11*******

******sim cycle: 32, clock mask: 4*******

******sim cycle: 32, clock mask: 11*******

******sim cycle: 33, clock mask: 11*******

******sim cycle: 34, clock mask: 4*******

******sim cycle: 34, clock mask: 11*******

******sim cycle: 35, clock mask: 4*******

******sim cycle: 35, clock mask: 11*******

******sim cycle: 36, clock mask: 4*******

******sim cycle: 36, clock mask: 11*******

******sim cycle: 37, clock mask: 11*******

******sim cycle: 38, clock mask: 4*******

******sim cycle: 38, clock mask: 11*******

******sim cycle: 39, clock mask: 4*******

******sim cycle: 39, clock mask: 11*******

******sim cycle: 40, clock mask: 4*******

******sim cycle: 40, clock mask: 11*******

******sim cycle: 41, clock mask: 11*******

******sim cycle: 42, clock mask: 4*******

******sim cycle: 42, clock mask: 11*******

******sim cycle: 43, clock mask: 4*******

******sim cycle: 43, clock mask: 11*******

******sim cycle: 44, clock mask: 4*******

******sim cycle: 44, clock mask: 11*******

******sim cycle: 45, clock mask: 11*******

******sim cycle: 46, clock mask: 4*******

******sim cycle: 46, clock mask: 11*******

******sim cycle: 47, clock mask: 4*******

******sim cycle: 47, clock mask: 11*******

******sim cycle: 48, clock mask: 4*******

******sim cycle: 48, clock mask: 11*******

******sim cycle: 49, clock mask: 11*******

******sim cycle: 50, clock mask: 4*******

******sim cycle: 50, clock mask: 11*******

******sim cycle: 51, clock mask: 4*******

******sim cycle: 51, clock mask: 11*******

******sim cycle: 52, clock mask: 4*******

******sim cycle: 52, clock mask: 11*******

******sim cycle: 53, clock mask: 11*******

******sim cycle: 54, clock mask: 4*******

******sim cycle: 54, clock mask: 11*******

******sim cycle: 55, clock mask: 4*******

******sim cycle: 55, clock mask: 11*******

******sim cycle: 56, clock mask: 4*******

******sim cycle: 56, clock mask: 11*******

******sim cycle: 57, clock mask: 11*******

******sim cycle: 58, clock mask: 4*******

******sim cycle: 58, clock mask: 11*******

******sim cycle: 59, clock mask: 4*******

******sim cycle: 59, clock mask: 11*******

******sim cycle: 60, clock mask: 4*******

******sim cycle: 60, clock mask: 11*******

******sim cycle: 61, clock mask: 11*******

******sim cycle: 62, clock mask: 4*******

******sim cycle: 62, clock mask: 11*******

******sim cycle: 63, clock mask: 4*******

******sim cycle: 63, clock mask: 11*******

******sim cycle: 64, clock mask: 4*******

******sim cycle: 64, clock mask: 11*******

******sim cycle: 65, clock mask: 11*******

******sim cycle: 66, clock mask: 4*******

******sim cycle: 66, clock mask: 11*******

******sim cycle: 67, clock mask: 4*******

******sim cycle: 67, clock mask: 11*******

******sim cycle: 68, clock mask: 4*******

******sim cycle: 68, clock mask: 11*******

******sim cycle: 69, clock mask: 11*******

******sim cycle: 70, clock mask: 4*******

******sim cycle: 70, clock mask: 11*******

******sim cycle: 71, clock mask: 4*******

******sim cycle: 71, clock mask: 11*******

******sim cycle: 72, clock mask: 4*******

******sim cycle: 72, clock mask: 11*******

******sim cycle: 73, clock mask: 11*******

******sim cycle: 74, clock mask: 4*******

******sim cycle: 74, clock mask: 11*******

******sim cycle: 75, clock mask: 4*******

******sim cycle: 75, clock mask: 11*******

******sim cycle: 76, clock mask: 4*******

******sim cycle: 76, clock mask: 11*******

******sim cycle: 77, clock mask: 11*******

******sim cycle: 78, clock mask: 4*******

******sim cycle: 78, clock mask: 11*******

******sim cycle: 79, clock mask: 4*******

******sim cycle: 79, clock mask: 11*******

******sim cycle: 80, clock mask: 4*******

******sim cycle: 80, clock mask: 11*******

******sim cycle: 81, clock mask: 11*******

******sim cycle: 82, clock mask: 4*******

******sim cycle: 82, clock mask: 11*******

******sim cycle: 83, clock mask: 4*******

******sim cycle: 83, clock mask: 11*******

******sim cycle: 84, clock mask: 4*******

******sim cycle: 84, clock mask: 11*******

******sim cycle: 85, clock mask: 11*******

******sim cycle: 86, clock mask: 4*******

******sim cycle: 86, clock mask: 11*******

******sim cycle: 87, clock mask: 4*******

******sim cycle: 87, clock mask: 11*******

******sim cycle: 88, clock mask: 4*******

******sim cycle: 88, clock mask: 11*******

******sim cycle: 89, clock mask: 11*******

******sim cycle: 90, clock mask: 4*******

******sim cycle: 90, clock mask: 11*******

******sim cycle: 91, clock mask: 4*******

******sim cycle: 91, clock mask: 11*******

******sim cycle: 92, clock mask: 4*******

******sim cycle: 92, clock mask: 11*******

******sim cycle: 93, clock mask: 11*******

******sim cycle: 94, clock mask: 4*******

******sim cycle: 94, clock mask: 11*******

******sim cycle: 95, clock mask: 4*******

******sim cycle: 95, clock mask: 11*******

******sim cycle: 96, clock mask: 4*******

******sim cycle: 96, clock mask: 11*******

******sim cycle: 97, clock mask: 11*******

******sim cycle: 98, clock mask: 4*******

******sim cycle: 98, clock mask: 11*******

******sim cycle: 99, clock mask: 4*******

******sim cycle: 99, clock mask: 11*******

******sim cycle: 100, clock mask: 4*******

******sim cycle: 100, clock mask: 11*******

******sim cycle: 101, clock mask: 11*******

******sim cycle: 102, clock mask: 4*******

******sim cycle: 102, clock mask: 11*******

******sim cycle: 103, clock mask: 4*******

******sim cycle: 103, clock mask: 11*******

******sim cycle: 104, clock mask: 4*******

******sim cycle: 104, clock mask: 11*******

******sim cycle: 105, clock mask: 11*******

******sim cycle: 106, clock mask: 4*******

******sim cycle: 106, clock mask: 11*******

******sim cycle: 107, clock mask: 4*******

******sim cycle: 107, clock mask: 11*******

******sim cycle: 108, clock mask: 4*******

******sim cycle: 108, clock mask: 11*******

******sim cycle: 109, clock mask: 11*******

******sim cycle: 110, clock mask: 4*******

******sim cycle: 110, clock mask: 11*******

******sim cycle: 111, clock mask: 4*******

******sim cycle: 111, clock mask: 11*******

******sim cycle: 112, clock mask: 4*******

******sim cycle: 112, clock mask: 11*******

******sim cycle: 113, clock mask: 11*******

******sim cycle: 114, clock mask: 4*******

******sim cycle: 114, clock mask: 11*******

******sim cycle: 115, clock mask: 4*******

******sim cycle: 115, clock mask: 11*******

******sim cycle: 116, clock mask: 4*******

******sim cycle: 116, clock mask: 11*******

******sim cycle: 117, clock mask: 11*******

******sim cycle: 118, clock mask: 4*******

******sim cycle: 118, clock mask: 11*******

******sim cycle: 119, clock mask: 4*******

******sim cycle: 119, clock mask: 11*******

******sim cycle: 120, clock mask: 4*******

******sim cycle: 120, clock mask: 11*******

******sim cycle: 121, clock mask: 11*******

******sim cycle: 122, clock mask: 4*******

******sim cycle: 122, clock mask: 11*******

******sim cycle: 123, clock mask: 4*******

******sim cycle: 123, clock mask: 11*******

******sim cycle: 124, clock mask: 4*******

******sim cycle: 124, clock mask: 11*******

******sim cycle: 125, clock mask: 11*******

******sim cycle: 126, clock mask: 4*******

******sim cycle: 126, clock mask: 11*******

******sim cycle: 127, clock mask: 4*******

******sim cycle: 127, clock mask: 11*******

******sim cycle: 128, clock mask: 4*******

******sim cycle: 128, clock mask: 11*******

******sim cycle: 129, clock mask: 11*******

******sim cycle: 130, clock mask: 4*******

******sim cycle: 130, clock mask: 11*******

******sim cycle: 131, clock mask: 4*******

******sim cycle: 131, clock mask: 11*******

******sim cycle: 132, clock mask: 4*******

******sim cycle: 132, clock mask: 11*******

******sim cycle: 133, clock mask: 11*******

******sim cycle: 134, clock mask: 4*******

******sim cycle: 134, clock mask: 11*******

******sim cycle: 135, clock mask: 4*******

******sim cycle: 135, clock mask: 11*******

******sim cycle: 136, clock mask: 4*******

******sim cycle: 136, clock mask: 11*******

******sim cycle: 137, clock mask: 11*******

******sim cycle: 138, clock mask: 4*******

******sim cycle: 138, clock mask: 11*******

******sim cycle: 139, clock mask: 4*******

******sim cycle: 139, clock mask: 11*******

******sim cycle: 140, clock mask: 4*******

******sim cycle: 140, clock mask: 11*******

******sim cycle: 141, clock mask: 11*******

******sim cycle: 142, clock mask: 4*******

******sim cycle: 142, clock mask: 11*******

******sim cycle: 143, clock mask: 4*******

******sim cycle: 143, clock mask: 11*******

******sim cycle: 144, clock mask: 4*******

******sim cycle: 144, clock mask: 11*******

******sim cycle: 145, clock mask: 11*******

******sim cycle: 146, clock mask: 4*******

******sim cycle: 146, clock mask: 11*******

******sim cycle: 147, clock mask: 4*******

******sim cycle: 147, clock mask: 11*******

******sim cycle: 148, clock mask: 4*******

******sim cycle: 148, clock mask: 11*******

******sim cycle: 149, clock mask: 11*******

******sim cycle: 150, clock mask: 4*******

******sim cycle: 150, clock mask: 11*******

******sim cycle: 151, clock mask: 4*******

******sim cycle: 151, clock mask: 11*******

******sim cycle: 152, clock mask: 4*******

******sim cycle: 152, clock mask: 11*******

******sim cycle: 153, clock mask: 11*******

******sim cycle: 154, clock mask: 4*******

******sim cycle: 154, clock mask: 11*******

******sim cycle: 155, clock mask: 4*******

******sim cycle: 155, clock mask: 11*******

******sim cycle: 156, clock mask: 4*******

******sim cycle: 156, clock mask: 11*******

******sim cycle: 157, clock mask: 11*******

******sim cycle: 158, clock mask: 4*******

******sim cycle: 158, clock mask: 11*******

******sim cycle: 159, clock mask: 4*******

******sim cycle: 159, clock mask: 11*******

******sim cycle: 160, clock mask: 4*******

******sim cycle: 160, clock mask: 11*******

******sim cycle: 161, clock mask: 11*******

******sim cycle: 162, clock mask: 4*******

******sim cycle: 162, clock mask: 11*******

******sim cycle: 163, clock mask: 4*******

******sim cycle: 163, clock mask: 11*******

******sim cycle: 164, clock mask: 4*******

******sim cycle: 164, clock mask: 11*******

******sim cycle: 165, clock mask: 11*******

******sim cycle: 166, clock mask: 4*******

******sim cycle: 166, clock mask: 11*******

******sim cycle: 167, clock mask: 4*******

******sim cycle: 167, clock mask: 11*******

******sim cycle: 168, clock mask: 4*******

******sim cycle: 168, clock mask: 11*******

******sim cycle: 169, clock mask: 11*******

******sim cycle: 170, clock mask: 4*******

******sim cycle: 170, clock mask: 11*******

******sim cycle: 171, clock mask: 4*******

******sim cycle: 171, clock mask: 11*******

******sim cycle: 172, clock mask: 4*******

******sim cycle: 172, clock mask: 11*******

******sim cycle: 173, clock mask: 11*******

******sim cycle: 174, clock mask: 4*******

******sim cycle: 174, clock mask: 11*******

******sim cycle: 175, clock mask: 4*******

******sim cycle: 175, clock mask: 11*******

******sim cycle: 176, clock mask: 4*******

******sim cycle: 176, clock mask: 11*******

******sim cycle: 177, clock mask: 11*******

******sim cycle: 178, clock mask: 4*******

******sim cycle: 178, clock mask: 11*******

******sim cycle: 179, clock mask: 4*******

******sim cycle: 179, clock mask: 11*******

******sim cycle: 180, clock mask: 4*******

******sim cycle: 180, clock mask: 11*******

******sim cycle: 181, clock mask: 11*******

******sim cycle: 182, clock mask: 4*******

******sim cycle: 182, clock mask: 11*******

******sim cycle: 183, clock mask: 4*******

******sim cycle: 183, clock mask: 11*******

******sim cycle: 184, clock mask: 4*******

******sim cycle: 184, clock mask: 11*******

******sim cycle: 185, clock mask: 11*******

******sim cycle: 186, clock mask: 4*******

******sim cycle: 186, clock mask: 11*******

******sim cycle: 187, clock mask: 4*******

******sim cycle: 187, clock mask: 11*******

******sim cycle: 188, clock mask: 4*******

******sim cycle: 188, clock mask: 11*******

******sim cycle: 189, clock mask: 11*******

******sim cycle: 190, clock mask: 4*******

******sim cycle: 190, clock mask: 11*******

******sim cycle: 191, clock mask: 4*******

******sim cycle: 191, clock mask: 11*******

******sim cycle: 192, clock mask: 4*******

******sim cycle: 192, clock mask: 11*******

******sim cycle: 193, clock mask: 11*******

******sim cycle: 194, clock mask: 4*******

******sim cycle: 194, clock mask: 11*******

******sim cycle: 195, clock mask: 4*******

******sim cycle: 195, clock mask: 11*******

******sim cycle: 196, clock mask: 4*******

******sim cycle: 196, clock mask: 11*******

******sim cycle: 197, clock mask: 11*******

******sim cycle: 198, clock mask: 4*******

******sim cycle: 198, clock mask: 11*******

******sim cycle: 199, clock mask: 4*******

******sim cycle: 199, clock mask: 11*******

******sim cycle: 200, clock mask: 4*******

******sim cycle: 200, clock mask: 11*******

******sim cycle: 201, clock mask: 11*******

******sim cycle: 202, clock mask: 4*******

******sim cycle: 202, clock mask: 11*******

******sim cycle: 203, clock mask: 4*******

******sim cycle: 203, clock mask: 11*******

******sim cycle: 204, clock mask: 4*******

******sim cycle: 204, clock mask: 11*******

******sim cycle: 205, clock mask: 11*******

******sim cycle: 206, clock mask: 4*******

******sim cycle: 206, clock mask: 11*******

******sim cycle: 207, clock mask: 4*******

******sim cycle: 207, clock mask: 11*******

******sim cycle: 208, clock mask: 4*******

******sim cycle: 208, clock mask: 11*******

******sim cycle: 209, clock mask: 11*******

******sim cycle: 210, clock mask: 4*******

******sim cycle: 210, clock mask: 11*******

******sim cycle: 211, clock mask: 4*******

******sim cycle: 211, clock mask: 11*******

******sim cycle: 212, clock mask: 4*******

******sim cycle: 212, clock mask: 11*******

******sim cycle: 213, clock mask: 11*******

******sim cycle: 214, clock mask: 4*******

******sim cycle: 214, clock mask: 11*******

******sim cycle: 215, clock mask: 4*******

******sim cycle: 215, clock mask: 11*******

******sim cycle: 216, clock mask: 4*******

******sim cycle: 216, clock mask: 11*******

******sim cycle: 217, clock mask: 11*******

******sim cycle: 218, clock mask: 4*******

******sim cycle: 218, clock mask: 11*******

******sim cycle: 219, clock mask: 4*******

******sim cycle: 219, clock mask: 11*******

******sim cycle: 220, clock mask: 4*******

******sim cycle: 220, clock mask: 11*******

******sim cycle: 221, clock mask: 11*******

******sim cycle: 222, clock mask: 4*******

******sim cycle: 222, clock mask: 11*******

******sim cycle: 223, clock mask: 4*******

******sim cycle: 223, clock mask: 11*******

******sim cycle: 224, clock mask: 4*******

******sim cycle: 224, clock mask: 11*******

******sim cycle: 225, clock mask: 11*******

******sim cycle: 226, clock mask: 4*******

******sim cycle: 226, clock mask: 11*******

******sim cycle: 227, clock mask: 4*******

******sim cycle: 227, clock mask: 11*******

******sim cycle: 228, clock mask: 4*******

******sim cycle: 228, clock mask: 11*******

******sim cycle: 229, clock mask: 11*******

******sim cycle: 230, clock mask: 4*******

******sim cycle: 230, clock mask: 11*******

******sim cycle: 231, clock mask: 4*******

******sim cycle: 231, clock mask: 11*******

******sim cycle: 232, clock mask: 4*******

******sim cycle: 232, clock mask: 11*******

******sim cycle: 233, clock mask: 11*******

******sim cycle: 234, clock mask: 4*******

******sim cycle: 234, clock mask: 11*******

******sim cycle: 235, clock mask: 4*******

******sim cycle: 235, clock mask: 11*******

******sim cycle: 236, clock mask: 4*******

******sim cycle: 236, clock mask: 11*******

******sim cycle: 237, clock mask: 11*******

******sim cycle: 238, clock mask: 4*******

******sim cycle: 238, clock mask: 11*******

******sim cycle: 239, clock mask: 4*******

******sim cycle: 239, clock mask: 11*******

******sim cycle: 240, clock mask: 4*******

******sim cycle: 240, clock mask: 11*******

******sim cycle: 241, clock mask: 11*******

******sim cycle: 242, clock mask: 4*******

******sim cycle: 242, clock mask: 11*******

******sim cycle: 243, clock mask: 4*******

******sim cycle: 243, clock mask: 11*******

******sim cycle: 244, clock mask: 4*******

******sim cycle: 244, clock mask: 11*******

******sim cycle: 245, clock mask: 11*******

******sim cycle: 246, clock mask: 4*******

******sim cycle: 246, clock mask: 11*******

******sim cycle: 247, clock mask: 4*******

******sim cycle: 247, clock mask: 11*******

******sim cycle: 248, clock mask: 4*******

******sim cycle: 248, clock mask: 11*******

******sim cycle: 249, clock mask: 11*******

******sim cycle: 250, clock mask: 4*******

******sim cycle: 250, clock mask: 11*******

******sim cycle: 251, clock mask: 4*******

******sim cycle: 251, clock mask: 11*******

******sim cycle: 252, clock mask: 4*******

******sim cycle: 252, clock mask: 11*******

******sim cycle: 253, clock mask: 11*******

******sim cycle: 254, clock mask: 4*******

******sim cycle: 254, clock mask: 11*******

******sim cycle: 255, clock mask: 4*******

******sim cycle: 255, clock mask: 11*******

******sim cycle: 256, clock mask: 4*******

******sim cycle: 256, clock mask: 11*******

******sim cycle: 257, clock mask: 11*******

******sim cycle: 258, clock mask: 4*******

******sim cycle: 258, clock mask: 11*******

******sim cycle: 259, clock mask: 4*******

******sim cycle: 259, clock mask: 11*******

******sim cycle: 260, clock mask: 4*******

******sim cycle: 260, clock mask: 11*******

******sim cycle: 261, clock mask: 11*******

******sim cycle: 262, clock mask: 4*******

******sim cycle: 262, clock mask: 11*******

******sim cycle: 263, clock mask: 4*******

******sim cycle: 263, clock mask: 11*******

******sim cycle: 264, clock mask: 4*******

******sim cycle: 264, clock mask: 11*******

******sim cycle: 265, clock mask: 11*******

******sim cycle: 266, clock mask: 4*******

******sim cycle: 266, clock mask: 11*******

******sim cycle: 267, clock mask: 4*******

******sim cycle: 267, clock mask: 11*******

******sim cycle: 268, clock mask: 4*******

******sim cycle: 268, clock mask: 11*******

******sim cycle: 269, clock mask: 11*******

******sim cycle: 270, clock mask: 4*******

******sim cycle: 270, clock mask: 11*******

******sim cycle: 271, clock mask: 4*******

******sim cycle: 271, clock mask: 11*******

******sim cycle: 272, clock mask: 4*******

******sim cycle: 272, clock mask: 11*******

******sim cycle: 273, clock mask: 11*******

******sim cycle: 274, clock mask: 4*******

******sim cycle: 274, clock mask: 11*******

******sim cycle: 275, clock mask: 4*******

******sim cycle: 275, clock mask: 11*******

******sim cycle: 276, clock mask: 4*******

******sim cycle: 276, clock mask: 11*******

******sim cycle: 277, clock mask: 11*******

******sim cycle: 278, clock mask: 4*******

******sim cycle: 278, clock mask: 11*******

******sim cycle: 279, clock mask: 4*******

******sim cycle: 279, clock mask: 11*******

******sim cycle: 280, clock mask: 4*******

******sim cycle: 280, clock mask: 11*******

******sim cycle: 281, clock mask: 11*******

******sim cycle: 282, clock mask: 4*******

******sim cycle: 282, clock mask: 11*******

******sim cycle: 283, clock mask: 4*******

******sim cycle: 283, clock mask: 11*******

******sim cycle: 284, clock mask: 4*******

******sim cycle: 284, clock mask: 11*******

******sim cycle: 285, clock mask: 4*******

******sim cycle: 285, clock mask: 11*******

******sim cycle: 286, clock mask: 11*******

******sim cycle: 287, clock mask: 4*******

******sim cycle: 287, clock mask: 11*******

******sim cycle: 288, clock mask: 4*******

******sim cycle: 288, clock mask: 11*******

******sim cycle: 289, clock mask: 4*******

******sim cycle: 289, clock mask: 11*******

******sim cycle: 290, clock mask: 11*******

******sim cycle: 291, clock mask: 4*******

******sim cycle: 291, clock mask: 11*******

******sim cycle: 292, clock mask: 4*******

******sim cycle: 292, clock mask: 11*******

******sim cycle: 293, clock mask: 4*******

******sim cycle: 293, clock mask: 11*******

******sim cycle: 294, clock mask: 11*******

******sim cycle: 295, clock mask: 4*******

******sim cycle: 295, clock mask: 11*******

******sim cycle: 296, clock mask: 4*******

******sim cycle: 296, clock mask: 11*******

******sim cycle: 297, clock mask: 4*******

******sim cycle: 297, clock mask: 11*******

******sim cycle: 298, clock mask: 11*******

******sim cycle: 299, clock mask: 4*******

******sim cycle: 299, clock mask: 11*******

******sim cycle: 300, clock mask: 4*******

******sim cycle: 300, clock mask: 11*******

******sim cycle: 301, clock mask: 4*******

******sim cycle: 301, clock mask: 11*******

******sim cycle: 302, clock mask: 11*******

******sim cycle: 303, clock mask: 4*******

******sim cycle: 303, clock mask: 11*******

******sim cycle: 304, clock mask: 4*******

******sim cycle: 304, clock mask: 11*******

******sim cycle: 305, clock mask: 4*******

******sim cycle: 305, clock mask: 11*******

******sim cycle: 306, clock mask: 11*******

******sim cycle: 307, clock mask: 4*******

******sim cycle: 307, clock mask: 11*******

******sim cycle: 308, clock mask: 4*******

******sim cycle: 308, clock mask: 11*******

******sim cycle: 309, clock mask: 4*******

******sim cycle: 309, clock mask: 11*******

******sim cycle: 310, clock mask: 11*******

******sim cycle: 311, clock mask: 4*******

******sim cycle: 311, clock mask: 11*******

******sim cycle: 312, clock mask: 4*******

******sim cycle: 312, clock mask: 11*******

******sim cycle: 313, clock mask: 4*******

******sim cycle: 313, clock mask: 11*******

******sim cycle: 314, clock mask: 11*******

******sim cycle: 315, clock mask: 4*******

******sim cycle: 315, clock mask: 11*******

******sim cycle: 316, clock mask: 4*******

******sim cycle: 316, clock mask: 11*******

******sim cycle: 317, clock mask: 4*******

******sim cycle: 317, clock mask: 11*******

******sim cycle: 318, clock mask: 11*******

******sim cycle: 319, clock mask: 4*******

******sim cycle: 319, clock mask: 11*******

******sim cycle: 320, clock mask: 4*******

******sim cycle: 320, clock mask: 11*******

******sim cycle: 321, clock mask: 4*******

******sim cycle: 321, clock mask: 11*******

******sim cycle: 322, clock mask: 11*******

******sim cycle: 323, clock mask: 4*******

******sim cycle: 323, clock mask: 11*******

******sim cycle: 324, clock mask: 4*******

******sim cycle: 324, clock mask: 11*******

******sim cycle: 325, clock mask: 4*******

******sim cycle: 325, clock mask: 11*******

******sim cycle: 326, clock mask: 11*******

******sim cycle: 327, clock mask: 4*******

******sim cycle: 327, clock mask: 11*******

******sim cycle: 328, clock mask: 4*******

******sim cycle: 328, clock mask: 11*******

******sim cycle: 329, clock mask: 4*******

******sim cycle: 329, clock mask: 11*******

******sim cycle: 330, clock mask: 11*******

******sim cycle: 331, clock mask: 4*******

******sim cycle: 331, clock mask: 11*******

******sim cycle: 332, clock mask: 4*******

******sim cycle: 332, clock mask: 11*******

******sim cycle: 333, clock mask: 4*******

******sim cycle: 333, clock mask: 11*******

******sim cycle: 334, clock mask: 11*******

******sim cycle: 335, clock mask: 4*******

******sim cycle: 335, clock mask: 11*******

******sim cycle: 336, clock mask: 4*******

******sim cycle: 336, clock mask: 11*******

******sim cycle: 337, clock mask: 4*******

******sim cycle: 337, clock mask: 11*******

******sim cycle: 338, clock mask: 11*******

******sim cycle: 339, clock mask: 4*******

******sim cycle: 339, clock mask: 11*******

******sim cycle: 340, clock mask: 4*******

******sim cycle: 340, clock mask: 11*******

******sim cycle: 341, clock mask: 4*******

******sim cycle: 341, clock mask: 11*******

******sim cycle: 342, clock mask: 11*******

******sim cycle: 343, clock mask: 4*******

******sim cycle: 343, clock mask: 11*******

******sim cycle: 344, clock mask: 4*******

******sim cycle: 344, clock mask: 11*******

******sim cycle: 345, clock mask: 4*******

******sim cycle: 345, clock mask: 11*******

******sim cycle: 346, clock mask: 11*******

******sim cycle: 347, clock mask: 4*******

******sim cycle: 347, clock mask: 11*******

******sim cycle: 348, clock mask: 4*******

******sim cycle: 348, clock mask: 11*******

******sim cycle: 349, clock mask: 4*******

******sim cycle: 349, clock mask: 11*******

******sim cycle: 350, clock mask: 11*******

******sim cycle: 351, clock mask: 4*******

******sim cycle: 351, clock mask: 11*******

******sim cycle: 352, clock mask: 4*******

******sim cycle: 352, clock mask: 11*******

******sim cycle: 353, clock mask: 4*******

******sim cycle: 353, clock mask: 11*******

******sim cycle: 354, clock mask: 11*******

******sim cycle: 355, clock mask: 4*******

******sim cycle: 355, clock mask: 11*******

******sim cycle: 356, clock mask: 4*******

******sim cycle: 356, clock mask: 11*******

******sim cycle: 357, clock mask: 4*******

******sim cycle: 357, clock mask: 11*******

******sim cycle: 358, clock mask: 11*******

******sim cycle: 359, clock mask: 4*******

******sim cycle: 359, clock mask: 11*******

******sim cycle: 360, clock mask: 4*******

******sim cycle: 360, clock mask: 11*******

******sim cycle: 361, clock mask: 4*******

******sim cycle: 361, clock mask: 11*******

******sim cycle: 362, clock mask: 11*******

******sim cycle: 363, clock mask: 4*******

******sim cycle: 363, clock mask: 11*******

******sim cycle: 364, clock mask: 4*******

******sim cycle: 364, clock mask: 11*******

******sim cycle: 365, clock mask: 4*******

******sim cycle: 365, clock mask: 11*******

******sim cycle: 366, clock mask: 11*******

******sim cycle: 367, clock mask: 4*******

******sim cycle: 367, clock mask: 11*******

******sim cycle: 368, clock mask: 4*******

******sim cycle: 368, clock mask: 11*******

******sim cycle: 369, clock mask: 4*******

******sim cycle: 369, clock mask: 11*******

******sim cycle: 370, clock mask: 11*******

******sim cycle: 371, clock mask: 4*******

******sim cycle: 371, clock mask: 11*******

******sim cycle: 372, clock mask: 4*******

******sim cycle: 372, clock mask: 11*******

******sim cycle: 373, clock mask: 4*******

******sim cycle: 373, clock mask: 11*******

******sim cycle: 374, clock mask: 11*******

******sim cycle: 375, clock mask: 4*******

******sim cycle: 375, clock mask: 11*******

******sim cycle: 376, clock mask: 4*******

******sim cycle: 376, clock mask: 11*******

******sim cycle: 377, clock mask: 4*******

******sim cycle: 377, clock mask: 11*******

******sim cycle: 378, clock mask: 11*******

******sim cycle: 379, clock mask: 4*******

******sim cycle: 379, clock mask: 11*******

******sim cycle: 380, clock mask: 4*******

******sim cycle: 380, clock mask: 11*******

******sim cycle: 381, clock mask: 4*******

******sim cycle: 381, clock mask: 11*******

******sim cycle: 382, clock mask: 11*******

******sim cycle: 383, clock mask: 4*******

******sim cycle: 383, clock mask: 11*******

******sim cycle: 384, clock mask: 4*******

******sim cycle: 384, clock mask: 11*******

******sim cycle: 385, clock mask: 4*******

******sim cycle: 385, clock mask: 11*******

******sim cycle: 386, clock mask: 11*******

******sim cycle: 387, clock mask: 4*******

******sim cycle: 387, clock mask: 11*******

******sim cycle: 388, clock mask: 4*******

******sim cycle: 388, clock mask: 11*******

******sim cycle: 389, clock mask: 4*******

******sim cycle: 389, clock mask: 11*******

******sim cycle: 390, clock mask: 11*******

******sim cycle: 391, clock mask: 4*******

******sim cycle: 391, clock mask: 11*******

******sim cycle: 392, clock mask: 4*******

******sim cycle: 392, clock mask: 11*******

******sim cycle: 393, clock mask: 4*******

******sim cycle: 393, clock mask: 11*******

******sim cycle: 394, clock mask: 11*******

******sim cycle: 395, clock mask: 4*******

******sim cycle: 395, clock mask: 11*******

******sim cycle: 396, clock mask: 4*******

******sim cycle: 396, clock mask: 11*******

******sim cycle: 397, clock mask: 4*******

******sim cycle: 397, clock mask: 11*******

******sim cycle: 398, clock mask: 11*******

******sim cycle: 399, clock mask: 4*******

******sim cycle: 399, clock mask: 11*******

******sim cycle: 400, clock mask: 4*******

******sim cycle: 400, clock mask: 11*******

******sim cycle: 401, clock mask: 4*******

******sim cycle: 401, clock mask: 11*******

******sim cycle: 402, clock mask: 11*******

******sim cycle: 403, clock mask: 4*******

******sim cycle: 403, clock mask: 11*******

******sim cycle: 404, clock mask: 4*******

******sim cycle: 404, clock mask: 11*******

******sim cycle: 405, clock mask: 4*******

******sim cycle: 405, clock mask: 11*******

******sim cycle: 406, clock mask: 11*******

******sim cycle: 407, clock mask: 4*******

******sim cycle: 407, clock mask: 11*******

******sim cycle: 408, clock mask: 4*******

******sim cycle: 408, clock mask: 11*******

******sim cycle: 409, clock mask: 4*******

******sim cycle: 409, clock mask: 11*******

******sim cycle: 410, clock mask: 11*******

******sim cycle: 411, clock mask: 4*******

******sim cycle: 411, clock mask: 11*******

******sim cycle: 412, clock mask: 4*******

******sim cycle: 412, clock mask: 11*******

******sim cycle: 413, clock mask: 4*******

******sim cycle: 413, clock mask: 11*******

******sim cycle: 414, clock mask: 11*******

******sim cycle: 415, clock mask: 4*******

******sim cycle: 415, clock mask: 11*******

******sim cycle: 416, clock mask: 4*******

******sim cycle: 416, clock mask: 11*******

******sim cycle: 417, clock mask: 4*******

******sim cycle: 417, clock mask: 11*******

******sim cycle: 418, clock mask: 11*******

******sim cycle: 419, clock mask: 4*******

******sim cycle: 419, clock mask: 11*******

******sim cycle: 420, clock mask: 4*******

******sim cycle: 420, clock mask: 11*******

******sim cycle: 421, clock mask: 4*******

******sim cycle: 421, clock mask: 11*******

******sim cycle: 422, clock mask: 11*******

******sim cycle: 423, clock mask: 4*******

******sim cycle: 423, clock mask: 11*******

******sim cycle: 424, clock mask: 4*******

******sim cycle: 424, clock mask: 11*******

******sim cycle: 425, clock mask: 4*******

******sim cycle: 425, clock mask: 11*******

******sim cycle: 426, clock mask: 11*******

******sim cycle: 427, clock mask: 4*******

******sim cycle: 427, clock mask: 11*******

******sim cycle: 428, clock mask: 4*******

******sim cycle: 428, clock mask: 11*******

******sim cycle: 429, clock mask: 4*******

******sim cycle: 429, clock mask: 11*******

******sim cycle: 430, clock mask: 11*******

******sim cycle: 431, clock mask: 4*******

******sim cycle: 431, clock mask: 11*******

******sim cycle: 432, clock mask: 4*******

******sim cycle: 432, clock mask: 11*******

******sim cycle: 433, clock mask: 4*******

******sim cycle: 433, clock mask: 11*******

******sim cycle: 434, clock mask: 11*******

******sim cycle: 435, clock mask: 4*******

******sim cycle: 435, clock mask: 11*******

******sim cycle: 436, clock mask: 4*******

******sim cycle: 436, clock mask: 11*******

******sim cycle: 437, clock mask: 4*******

******sim cycle: 437, clock mask: 11*******

******sim cycle: 438, clock mask: 11*******

******sim cycle: 439, clock mask: 4*******

******sim cycle: 439, clock mask: 11*******

******sim cycle: 440, clock mask: 4*******

******sim cycle: 440, clock mask: 11*******

******sim cycle: 441, clock mask: 4*******

******sim cycle: 441, clock mask: 11*******

******sim cycle: 442, clock mask: 11*******

******sim cycle: 443, clock mask: 4*******

******sim cycle: 443, clock mask: 11*******

******sim cycle: 444, clock mask: 4*******

******sim cycle: 444, clock mask: 11*******

******sim cycle: 445, clock mask: 4*******

******sim cycle: 445, clock mask: 11*******

******sim cycle: 446, clock mask: 11*******

******sim cycle: 447, clock mask: 4*******

******sim cycle: 447, clock mask: 11*******

******sim cycle: 448, clock mask: 4*******

******sim cycle: 448, clock mask: 11*******

******sim cycle: 449, clock mask: 4*******

******sim cycle: 449, clock mask: 11*******

******sim cycle: 450, clock mask: 11*******

******sim cycle: 451, clock mask: 4*******

******sim cycle: 451, clock mask: 11*******

******sim cycle: 452, clock mask: 4*******

******sim cycle: 452, clock mask: 11*******

******sim cycle: 453, clock mask: 4*******

******sim cycle: 453, clock mask: 11*******

******sim cycle: 454, clock mask: 11*******

******sim cycle: 455, clock mask: 4*******

******sim cycle: 455, clock mask: 11*******

******sim cycle: 456, clock mask: 4*******

******sim cycle: 456, clock mask: 11*******

******sim cycle: 457, clock mask: 4*******

******sim cycle: 457, clock mask: 11*******

******sim cycle: 458, clock mask: 11*******

******sim cycle: 459, clock mask: 4*******

******sim cycle: 459, clock mask: 11*******

******sim cycle: 460, clock mask: 4*******

******sim cycle: 460, clock mask: 11*******

******sim cycle: 461, clock mask: 4*******

******sim cycle: 461, clock mask: 11*******

******sim cycle: 462, clock mask: 11*******

******sim cycle: 463, clock mask: 4*******

******sim cycle: 463, clock mask: 11*******

******sim cycle: 464, clock mask: 4*******

******sim cycle: 464, clock mask: 11*******

******sim cycle: 465, clock mask: 4*******

******sim cycle: 465, clock mask: 11*******

******sim cycle: 466, clock mask: 11*******

******sim cycle: 467, clock mask: 4*******

******sim cycle: 467, clock mask: 11*******

******sim cycle: 468, clock mask: 4*******

******sim cycle: 468, clock mask: 11*******

******sim cycle: 469, clock mask: 4*******

******sim cycle: 469, clock mask: 11*******

******sim cycle: 470, clock mask: 11*******

******sim cycle: 471, clock mask: 4*******

******sim cycle: 471, clock mask: 11*******

******sim cycle: 472, clock mask: 4*******

******sim cycle: 472, clock mask: 11*******

******sim cycle: 473, clock mask: 4*******

******sim cycle: 473, clock mask: 11*******

******sim cycle: 474, clock mask: 11*******

******sim cycle: 475, clock mask: 4*******

******sim cycle: 475, clock mask: 11*******

******sim cycle: 476, clock mask: 4*******

******sim cycle: 476, clock mask: 11*******

******sim cycle: 477, clock mask: 4*******

******sim cycle: 477, clock mask: 11*******

******sim cycle: 478, clock mask: 11*******

******sim cycle: 479, clock mask: 4*******

******sim cycle: 479, clock mask: 11*******

******sim cycle: 480, clock mask: 4*******

******sim cycle: 480, clock mask: 11*******

******sim cycle: 481, clock mask: 4*******

******sim cycle: 481, clock mask: 11*******

******sim cycle: 482, clock mask: 11*******

******sim cycle: 483, clock mask: 4*******

******sim cycle: 483, clock mask: 11*******

******sim cycle: 484, clock mask: 4*******

******sim cycle: 484, clock mask: 11*******

******sim cycle: 485, clock mask: 4*******

******sim cycle: 485, clock mask: 11*******

******sim cycle: 486, clock mask: 11*******

******sim cycle: 487, clock mask: 4*******

******sim cycle: 487, clock mask: 11*******

******sim cycle: 488, clock mask: 4*******

******sim cycle: 488, clock mask: 11*******

******sim cycle: 489, clock mask: 4*******

******sim cycle: 489, clock mask: 11*******

******sim cycle: 490, clock mask: 11*******

******sim cycle: 491, clock mask: 4*******

******sim cycle: 491, clock mask: 11*******

******sim cycle: 492, clock mask: 4*******

******sim cycle: 492, clock mask: 11*******

******sim cycle: 493, clock mask: 4*******

******sim cycle: 493, clock mask: 11*******

******sim cycle: 494, clock mask: 11*******

******sim cycle: 495, clock mask: 4*******

******sim cycle: 495, clock mask: 11*******

******sim cycle: 496, clock mask: 4*******

******sim cycle: 496, clock mask: 11*******

******sim cycle: 497, clock mask: 4*******

******sim cycle: 497, clock mask: 11*******

******sim cycle: 498, clock mask: 11*******

******sim cycle: 499, clock mask: 4*******

******sim cycle: 499, clock mask: 11*******

******sim cycle: 500, clock mask: 4*******

******sim cycle: 500, clock mask: 11*******

******sim cycle: 501, clock mask: 4*******

******sim cycle: 501, clock mask: 11*******

******sim cycle: 502, clock mask: 11*******

******sim cycle: 503, clock mask: 4*******

******sim cycle: 503, clock mask: 11*******

******sim cycle: 504, clock mask: 4*******

******sim cycle: 504, clock mask: 11*******

******sim cycle: 505, clock mask: 4*******

******sim cycle: 505, clock mask: 11*******

******sim cycle: 506, clock mask: 11*******

******sim cycle: 507, clock mask: 4*******

******sim cycle: 507, clock mask: 11*******

******sim cycle: 508, clock mask: 4*******

******sim cycle: 508, clock mask: 11*******

******sim cycle: 509, clock mask: 4*******

******sim cycle: 509, clock mask: 11*******

******sim cycle: 510, clock mask: 11*******

******sim cycle: 511, clock mask: 4*******

******sim cycle: 511, clock mask: 11*******

******sim cycle: 512, clock mask: 4*******

******sim cycle: 512, clock mask: 11*******

******sim cycle: 513, clock mask: 4*******

******sim cycle: 513, clock mask: 11*******

******sim cycle: 514, clock mask: 11*******

******sim cycle: 515, clock mask: 4*******

******sim cycle: 515, clock mask: 11*******

******sim cycle: 516, clock mask: 4*******

******sim cycle: 516, clock mask: 11*******

******sim cycle: 517, clock mask: 4*******

******sim cycle: 517, clock mask: 11*******

******sim cycle: 518, clock mask: 11*******

******sim cycle: 519, clock mask: 4*******

******sim cycle: 519, clock mask: 11*******

******sim cycle: 520, clock mask: 4*******

******sim cycle: 520, clock mask: 11*******

******sim cycle: 521, clock mask: 4*******

******sim cycle: 521, clock mask: 11*******

******sim cycle: 522, clock mask: 11*******

******sim cycle: 523, clock mask: 4*******

******sim cycle: 523, clock mask: 11*******

******sim cycle: 524, clock mask: 4*******

******sim cycle: 524, clock mask: 11*******

******sim cycle: 525, clock mask: 4*******

******sim cycle: 525, clock mask: 11*******

******sim cycle: 526, clock mask: 11*******

******sim cycle: 527, clock mask: 4*******

******sim cycle: 527, clock mask: 11*******

******sim cycle: 528, clock mask: 4*******

******sim cycle: 528, clock mask: 11*******

******sim cycle: 529, clock mask: 4*******

******sim cycle: 529, clock mask: 11*******

******sim cycle: 530, clock mask: 11*******

******sim cycle: 531, clock mask: 4*******

******sim cycle: 531, clock mask: 11*******

******sim cycle: 532, clock mask: 4*******

******sim cycle: 532, clock mask: 11*******

******sim cycle: 533, clock mask: 4*******

******sim cycle: 533, clock mask: 11*******

******sim cycle: 534, clock mask: 11*******

******sim cycle: 535, clock mask: 4*******

******sim cycle: 535, clock mask: 11*******

******sim cycle: 536, clock mask: 4*******

******sim cycle: 536, clock mask: 11*******

******sim cycle: 537, clock mask: 4*******

******sim cycle: 537, clock mask: 11*******

******sim cycle: 538, clock mask: 11*******

******sim cycle: 539, clock mask: 4*******

******sim cycle: 539, clock mask: 11*******

******sim cycle: 540, clock mask: 4*******

******sim cycle: 540, clock mask: 11*******

******sim cycle: 541, clock mask: 4*******

******sim cycle: 541, clock mask: 11*******

******sim cycle: 542, clock mask: 11*******

******sim cycle: 543, clock mask: 4*******

******sim cycle: 543, clock mask: 11*******

******sim cycle: 544, clock mask: 4*******

******sim cycle: 544, clock mask: 11*******

******sim cycle: 545, clock mask: 4*******

******sim cycle: 545, clock mask: 11*******

******sim cycle: 546, clock mask: 11*******

******sim cycle: 547, clock mask: 4*******

******sim cycle: 547, clock mask: 11*******

******sim cycle: 548, clock mask: 4*******

******sim cycle: 548, clock mask: 11*******

******sim cycle: 549, clock mask: 4*******

******sim cycle: 549, clock mask: 11*******

******sim cycle: 550, clock mask: 11*******

******sim cycle: 551, clock mask: 4*******

******sim cycle: 551, clock mask: 11*******

******sim cycle: 552, clock mask: 4*******

******sim cycle: 552, clock mask: 11*******

******sim cycle: 553, clock mask: 4*******

******sim cycle: 553, clock mask: 11*******

******sim cycle: 554, clock mask: 11*******

******sim cycle: 555, clock mask: 4*******

******sim cycle: 555, clock mask: 11*******

******sim cycle: 556, clock mask: 4*******

******sim cycle: 556, clock mask: 11*******

******sim cycle: 557, clock mask: 4*******

******sim cycle: 557, clock mask: 11*******

******sim cycle: 558, clock mask: 11*******

******sim cycle: 559, clock mask: 4*******

******sim cycle: 559, clock mask: 11*******

******sim cycle: 560, clock mask: 4*******

******sim cycle: 560, clock mask: 11*******

******sim cycle: 561, clock mask: 4*******

******sim cycle: 561, clock mask: 11*******

******sim cycle: 562, clock mask: 11*******

******sim cycle: 563, clock mask: 4*******

******sim cycle: 563, clock mask: 11*******

******sim cycle: 564, clock mask: 4*******

******sim cycle: 564, clock mask: 11*******

******sim cycle: 565, clock mask: 4*******

******sim cycle: 565, clock mask: 11*******

******sim cycle: 566, clock mask: 11*******

******sim cycle: 567, clock mask: 4*******

******sim cycle: 567, clock mask: 11*******

******sim cycle: 568, clock mask: 4*******

******sim cycle: 568, clock mask: 11*******

******sim cycle: 569, clock mask: 4*******

******sim cycle: 569, clock mask: 11*******

******sim cycle: 570, clock mask: 4*******

******sim cycle: 570, clock mask: 11*******

******sim cycle: 571, clock mask: 11*******

******sim cycle: 572, clock mask: 4*******

******sim cycle: 572, clock mask: 11*******

******sim cycle: 573, clock mask: 4*******

******sim cycle: 573, clock mask: 11*******

******sim cycle: 574, clock mask: 4*******

******sim cycle: 574, clock mask: 11*******

******sim cycle: 575, clock mask: 11*******

******sim cycle: 576, clock mask: 4*******

******sim cycle: 576, clock mask: 11*******

******sim cycle: 577, clock mask: 4*******

******sim cycle: 577, clock mask: 11*******

******sim cycle: 578, clock mask: 4*******

******sim cycle: 578, clock mask: 11*******

******sim cycle: 579, clock mask: 11*******

******sim cycle: 580, clock mask: 4*******

******sim cycle: 580, clock mask: 11*******

******sim cycle: 581, clock mask: 4*******

******sim cycle: 581, clock mask: 11*******

******sim cycle: 582, clock mask: 4*******

******sim cycle: 582, clock mask: 11*******

******sim cycle: 583, clock mask: 11*******

******sim cycle: 584, clock mask: 4*******

******sim cycle: 584, clock mask: 11*******

******sim cycle: 585, clock mask: 4*******

******sim cycle: 585, clock mask: 11*******

******sim cycle: 586, clock mask: 4*******

******sim cycle: 586, clock mask: 11*******

******sim cycle: 587, clock mask: 11*******

******sim cycle: 588, clock mask: 4*******

******sim cycle: 588, clock mask: 11*******

******sim cycle: 589, clock mask: 4*******

******sim cycle: 589, clock mask: 11*******

******sim cycle: 590, clock mask: 4*******

******sim cycle: 590, clock mask: 11*******

******sim cycle: 591, clock mask: 11*******

******sim cycle: 592, clock mask: 4*******

******sim cycle: 592, clock mask: 11*******

******sim cycle: 593, clock mask: 4*******

******sim cycle: 593, clock mask: 11*******

******sim cycle: 594, clock mask: 4*******

******sim cycle: 594, clock mask: 11*******

******sim cycle: 595, clock mask: 11*******

******sim cycle: 596, clock mask: 4*******

******sim cycle: 596, clock mask: 11*******

******sim cycle: 597, clock mask: 4*******

******sim cycle: 597, clock mask: 11*******

******sim cycle: 598, clock mask: 4*******

******sim cycle: 598, clock mask: 11*******

******sim cycle: 599, clock mask: 11*******

******sim cycle: 600, clock mask: 4*******

******sim cycle: 600, clock mask: 11*******

******sim cycle: 601, clock mask: 4*******

******sim cycle: 601, clock mask: 11*******

******sim cycle: 602, clock mask: 4*******

******sim cycle: 602, clock mask: 11*******

******sim cycle: 603, clock mask: 11*******

******sim cycle: 604, clock mask: 4*******

******sim cycle: 604, clock mask: 11*******

******sim cycle: 605, clock mask: 4*******

******sim cycle: 605, clock mask: 11*******

******sim cycle: 606, clock mask: 4*******

******sim cycle: 606, clock mask: 11*******

******sim cycle: 607, clock mask: 11*******

******sim cycle: 608, clock mask: 4*******

******sim cycle: 608, clock mask: 11*******

******sim cycle: 609, clock mask: 4*******

******sim cycle: 609, clock mask: 11*******

******sim cycle: 610, clock mask: 4*******

******sim cycle: 610, clock mask: 11*******

******sim cycle: 611, clock mask: 11*******

******sim cycle: 612, clock mask: 4*******

******sim cycle: 612, clock mask: 11*******

******sim cycle: 613, clock mask: 4*******

******sim cycle: 613, clock mask: 11*******

******sim cycle: 614, clock mask: 4*******

******sim cycle: 614, clock mask: 11*******

******sim cycle: 615, clock mask: 11*******

******sim cycle: 616, clock mask: 4*******

******sim cycle: 616, clock mask: 11*******

******sim cycle: 617, clock mask: 4*******

******sim cycle: 617, clock mask: 11*******

******sim cycle: 618, clock mask: 4*******

******sim cycle: 618, clock mask: 11*******

******sim cycle: 619, clock mask: 11*******

******sim cycle: 620, clock mask: 4*******

******sim cycle: 620, clock mask: 11*******

******sim cycle: 621, clock mask: 4*******

******sim cycle: 621, clock mask: 11*******

******sim cycle: 622, clock mask: 4*******

******sim cycle: 622, clock mask: 11*******

******sim cycle: 623, clock mask: 11*******

******sim cycle: 624, clock mask: 4*******

******sim cycle: 624, clock mask: 11*******

******sim cycle: 625, clock mask: 4*******

******sim cycle: 625, clock mask: 11*******

******sim cycle: 626, clock mask: 4*******

******sim cycle: 626, clock mask: 11*******

******sim cycle: 627, clock mask: 11*******

******sim cycle: 628, clock mask: 4*******

******sim cycle: 628, clock mask: 11*******

******sim cycle: 629, clock mask: 4*******

******sim cycle: 629, clock mask: 11*******

******sim cycle: 630, clock mask: 4*******

******sim cycle: 630, clock mask: 11*******

******sim cycle: 631, clock mask: 11*******

******sim cycle: 632, clock mask: 4*******

******sim cycle: 632, clock mask: 11*******

******sim cycle: 633, clock mask: 4*******

******sim cycle: 633, clock mask: 11*******

******sim cycle: 634, clock mask: 4*******

******sim cycle: 634, clock mask: 11*******

******sim cycle: 635, clock mask: 11*******

******sim cycle: 636, clock mask: 4*******

******sim cycle: 636, clock mask: 11*******

******sim cycle: 637, clock mask: 4*******

******sim cycle: 637, clock mask: 11*******

******sim cycle: 638, clock mask: 4*******

******sim cycle: 638, clock mask: 11*******

******sim cycle: 639, clock mask: 11*******

******sim cycle: 640, clock mask: 4*******

******sim cycle: 640, clock mask: 11*******

******sim cycle: 641, clock mask: 4*******

******sim cycle: 641, clock mask: 11*******

******sim cycle: 642, clock mask: 4*******

******sim cycle: 642, clock mask: 11*******

******sim cycle: 643, clock mask: 11*******

******sim cycle: 644, clock mask: 4*******

******sim cycle: 644, clock mask: 11*******

******sim cycle: 645, clock mask: 4*******

******sim cycle: 645, clock mask: 11*******

******sim cycle: 646, clock mask: 4*******

******sim cycle: 646, clock mask: 11*******

******sim cycle: 647, clock mask: 11*******

******sim cycle: 648, clock mask: 4*******

******sim cycle: 648, clock mask: 11*******

******sim cycle: 649, clock mask: 4*******

******sim cycle: 649, clock mask: 11*******

******sim cycle: 650, clock mask: 4*******

******sim cycle: 650, clock mask: 11*******

******sim cycle: 651, clock mask: 11*******

******sim cycle: 652, clock mask: 4*******

******sim cycle: 652, clock mask: 11*******

******sim cycle: 653, clock mask: 4*******

******sim cycle: 653, clock mask: 11*******

******sim cycle: 654, clock mask: 4*******

******sim cycle: 654, clock mask: 11*******

******sim cycle: 655, clock mask: 11*******

******sim cycle: 656, clock mask: 4*******

******sim cycle: 656, clock mask: 11*******

******sim cycle: 657, clock mask: 4*******

******sim cycle: 657, clock mask: 11*******

******sim cycle: 658, clock mask: 4*******

******sim cycle: 658, clock mask: 11*******

******sim cycle: 659, clock mask: 11*******

******sim cycle: 660, clock mask: 4*******

******sim cycle: 660, clock mask: 11*******

******sim cycle: 661, clock mask: 4*******

******sim cycle: 661, clock mask: 11*******

******sim cycle: 662, clock mask: 4*******

******sim cycle: 662, clock mask: 11*******

******sim cycle: 663, clock mask: 11*******

******sim cycle: 664, clock mask: 4*******

******sim cycle: 664, clock mask: 11*******

******sim cycle: 665, clock mask: 4*******

******sim cycle: 665, clock mask: 11*******

******sim cycle: 666, clock mask: 4*******

******sim cycle: 666, clock mask: 11*******

******sim cycle: 667, clock mask: 11*******

******sim cycle: 668, clock mask: 4*******

******sim cycle: 668, clock mask: 11*******

******sim cycle: 669, clock mask: 4*******

******sim cycle: 669, clock mask: 11*******

******sim cycle: 670, clock mask: 4*******

******sim cycle: 670, clock mask: 11*******

******sim cycle: 671, clock mask: 11*******

******sim cycle: 672, clock mask: 4*******

******sim cycle: 672, clock mask: 11*******

******sim cycle: 673, clock mask: 4*******

******sim cycle: 673, clock mask: 11*******

******sim cycle: 674, clock mask: 4*******

******sim cycle: 674, clock mask: 11*******

******sim cycle: 675, clock mask: 11*******

******sim cycle: 676, clock mask: 4*******

******sim cycle: 676, clock mask: 11*******

******sim cycle: 677, clock mask: 4*******

******sim cycle: 677, clock mask: 11*******

******sim cycle: 678, clock mask: 4*******

******sim cycle: 678, clock mask: 11*******

******sim cycle: 679, clock mask: 11*******

******sim cycle: 680, clock mask: 4*******

******sim cycle: 680, clock mask: 11*******

******sim cycle: 681, clock mask: 4*******

******sim cycle: 681, clock mask: 11*******

******sim cycle: 682, clock mask: 4*******

******sim cycle: 682, clock mask: 11*******

******sim cycle: 683, clock mask: 11*******

******sim cycle: 684, clock mask: 4*******

******sim cycle: 684, clock mask: 11*******

******sim cycle: 685, clock mask: 4*******

******sim cycle: 685, clock mask: 11*******

******sim cycle: 686, clock mask: 4*******

******sim cycle: 686, clock mask: 11*******

******sim cycle: 687, clock mask: 11*******

******sim cycle: 688, clock mask: 4*******

******sim cycle: 688, clock mask: 11*******

******sim cycle: 689, clock mask: 4*******

******sim cycle: 689, clock mask: 11*******

******sim cycle: 690, clock mask: 4*******

******sim cycle: 690, clock mask: 11*******

******sim cycle: 691, clock mask: 11*******

******sim cycle: 692, clock mask: 4*******

******sim cycle: 692, clock mask: 11*******

******sim cycle: 693, clock mask: 4*******

******sim cycle: 693, clock mask: 11*******

******sim cycle: 694, clock mask: 4*******

******sim cycle: 694, clock mask: 11*******

******sim cycle: 695, clock mask: 11*******

******sim cycle: 696, clock mask: 4*******

******sim cycle: 696, clock mask: 11*******

******sim cycle: 697, clock mask: 4*******

******sim cycle: 697, clock mask: 11*******

******sim cycle: 698, clock mask: 4*******

******sim cycle: 698, clock mask: 11*******

******sim cycle: 699, clock mask: 11*******

******sim cycle: 700, clock mask: 4*******

******sim cycle: 700, clock mask: 11*******

******sim cycle: 701, clock mask: 4*******

******sim cycle: 701, clock mask: 11*******

******sim cycle: 702, clock mask: 4*******

******sim cycle: 702, clock mask: 11*******

******sim cycle: 703, clock mask: 11*******

******sim cycle: 704, clock mask: 4*******

******sim cycle: 704, clock mask: 11*******

******sim cycle: 705, clock mask: 4*******

******sim cycle: 705, clock mask: 11*******

******sim cycle: 706, clock mask: 4*******

******sim cycle: 706, clock mask: 11*******

******sim cycle: 707, clock mask: 11*******

******sim cycle: 708, clock mask: 4*******

******sim cycle: 708, clock mask: 11*******

******sim cycle: 709, clock mask: 4*******

******sim cycle: 709, clock mask: 11*******

******sim cycle: 710, clock mask: 4*******

******sim cycle: 710, clock mask: 11*******

******sim cycle: 711, clock mask: 11*******

******sim cycle: 712, clock mask: 4*******

******sim cycle: 712, clock mask: 11*******

******sim cycle: 713, clock mask: 4*******

******sim cycle: 713, clock mask: 11*******

******sim cycle: 714, clock mask: 4*******

******sim cycle: 714, clock mask: 11*******

******sim cycle: 715, clock mask: 11*******

******sim cycle: 716, clock mask: 4*******

******sim cycle: 716, clock mask: 11*******

******sim cycle: 717, clock mask: 4*******

******sim cycle: 717, clock mask: 11*******

******sim cycle: 718, clock mask: 4*******

******sim cycle: 718, clock mask: 11*******

******sim cycle: 719, clock mask: 11*******

******sim cycle: 720, clock mask: 4*******

******sim cycle: 720, clock mask: 11*******

******sim cycle: 721, clock mask: 4*******

******sim cycle: 721, clock mask: 11*******

******sim cycle: 722, clock mask: 4*******

******sim cycle: 722, clock mask: 11*******

******sim cycle: 723, clock mask: 11*******

******sim cycle: 724, clock mask: 4*******

******sim cycle: 724, clock mask: 11*******

******sim cycle: 725, clock mask: 4*******

******sim cycle: 725, clock mask: 11*******

******sim cycle: 726, clock mask: 4*******

******sim cycle: 726, clock mask: 11*******

******sim cycle: 727, clock mask: 11*******

******sim cycle: 728, clock mask: 4*******

******sim cycle: 728, clock mask: 11*******

******sim cycle: 729, clock mask: 4*******

******sim cycle: 729, clock mask: 11*******

******sim cycle: 730, clock mask: 4*******

******sim cycle: 730, clock mask: 11*******

******sim cycle: 731, clock mask: 11*******

******sim cycle: 732, clock mask: 4*******

******sim cycle: 732, clock mask: 11*******

******sim cycle: 733, clock mask: 4*******

******sim cycle: 733, clock mask: 11*******

******sim cycle: 734, clock mask: 4*******

******sim cycle: 734, clock mask: 11*******

******sim cycle: 735, clock mask: 11*******

******sim cycle: 736, clock mask: 4*******

******sim cycle: 736, clock mask: 11*******

******sim cycle: 737, clock mask: 4*******

******sim cycle: 737, clock mask: 11*******

******sim cycle: 738, clock mask: 4*******

******sim cycle: 738, clock mask: 11*******

******sim cycle: 739, clock mask: 11*******

******sim cycle: 740, clock mask: 4*******

******sim cycle: 740, clock mask: 11*******

******sim cycle: 741, clock mask: 4*******

******sim cycle: 741, clock mask: 11*******

******sim cycle: 742, clock mask: 4*******

******sim cycle: 742, clock mask: 11*******

******sim cycle: 743, clock mask: 11*******

******sim cycle: 744, clock mask: 4*******

******sim cycle: 744, clock mask: 11*******

******sim cycle: 745, clock mask: 4*******

******sim cycle: 745, clock mask: 11*******

******sim cycle: 746, clock mask: 4*******

******sim cycle: 746, clock mask: 11*******

******sim cycle: 747, clock mask: 11*******

******sim cycle: 748, clock mask: 4*******

******sim cycle: 748, clock mask: 11*******

******sim cycle: 749, clock mask: 4*******

******sim cycle: 749, clock mask: 11*******

******sim cycle: 750, clock mask: 4*******

******sim cycle: 750, clock mask: 11*******

******sim cycle: 751, clock mask: 11*******

******sim cycle: 752, clock mask: 4*******

******sim cycle: 752, clock mask: 11*******

******sim cycle: 753, clock mask: 4*******

******sim cycle: 753, clock mask: 11*******

******sim cycle: 754, clock mask: 4*******

******sim cycle: 754, clock mask: 11*******

******sim cycle: 755, clock mask: 11*******

******sim cycle: 756, clock mask: 4*******

******sim cycle: 756, clock mask: 11*******

******sim cycle: 757, clock mask: 4*******

******sim cycle: 757, clock mask: 11*******

******sim cycle: 758, clock mask: 4*******

******sim cycle: 758, clock mask: 11*******

******sim cycle: 759, clock mask: 11*******

******sim cycle: 760, clock mask: 4*******

******sim cycle: 760, clock mask: 11*******

******sim cycle: 761, clock mask: 4*******

******sim cycle: 761, clock mask: 11*******

******sim cycle: 762, clock mask: 4*******

******sim cycle: 762, clock mask: 11*******

******sim cycle: 763, clock mask: 11*******

******sim cycle: 764, clock mask: 4*******

******sim cycle: 764, clock mask: 11*******

******sim cycle: 765, clock mask: 4*******

******sim cycle: 765, clock mask: 11*******

******sim cycle: 766, clock mask: 4*******

******sim cycle: 766, clock mask: 11*******

******sim cycle: 767, clock mask: 11*******

******sim cycle: 768, clock mask: 4*******

******sim cycle: 768, clock mask: 11*******

******sim cycle: 769, clock mask: 4*******

******sim cycle: 769, clock mask: 11*******

******sim cycle: 770, clock mask: 4*******

******sim cycle: 770, clock mask: 11*******

******sim cycle: 771, clock mask: 11*******

******sim cycle: 772, clock mask: 4*******

******sim cycle: 772, clock mask: 11*******

******sim cycle: 773, clock mask: 4*******

******sim cycle: 773, clock mask: 11*******

******sim cycle: 774, clock mask: 4*******

******sim cycle: 774, clock mask: 11*******

******sim cycle: 775, clock mask: 11*******

******sim cycle: 776, clock mask: 4*******

******sim cycle: 776, clock mask: 11*******

******sim cycle: 777, clock mask: 4*******

******sim cycle: 777, clock mask: 11*******

******sim cycle: 778, clock mask: 4*******

******sim cycle: 778, clock mask: 11*******

******sim cycle: 779, clock mask: 11*******

******sim cycle: 780, clock mask: 4*******

******sim cycle: 780, clock mask: 11*******

******sim cycle: 781, clock mask: 4*******

******sim cycle: 781, clock mask: 11*******

******sim cycle: 782, clock mask: 4*******

******sim cycle: 782, clock mask: 11*******

******sim cycle: 783, clock mask: 11*******

******sim cycle: 784, clock mask: 4*******

******sim cycle: 784, clock mask: 11*******

******sim cycle: 785, clock mask: 4*******

******sim cycle: 785, clock mask: 11*******

******sim cycle: 786, clock mask: 4*******

******sim cycle: 786, clock mask: 11*******

******sim cycle: 787, clock mask: 11*******

******sim cycle: 788, clock mask: 4*******

******sim cycle: 788, clock mask: 11*******

******sim cycle: 789, clock mask: 4*******

******sim cycle: 789, clock mask: 11*******

******sim cycle: 790, clock mask: 4*******

******sim cycle: 790, clock mask: 11*******

******sim cycle: 791, clock mask: 11*******

******sim cycle: 792, clock mask: 4*******

******sim cycle: 792, clock mask: 11*******

******sim cycle: 793, clock mask: 4*******

******sim cycle: 793, clock mask: 11*******

******sim cycle: 794, clock mask: 4*******

******sim cycle: 794, clock mask: 11*******

******sim cycle: 795, clock mask: 11*******

******sim cycle: 796, clock mask: 4*******

******sim cycle: 796, clock mask: 11*******

******sim cycle: 797, clock mask: 4*******

******sim cycle: 797, clock mask: 11*******

******sim cycle: 798, clock mask: 4*******

******sim cycle: 798, clock mask: 11*******

******sim cycle: 799, clock mask: 11*******

******sim cycle: 800, clock mask: 4*******

******sim cycle: 800, clock mask: 11*******

******sim cycle: 801, clock mask: 4*******

******sim cycle: 801, clock mask: 11*******

******sim cycle: 802, clock mask: 4*******

******sim cycle: 802, clock mask: 11*******

******sim cycle: 803, clock mask: 11*******

******sim cycle: 804, clock mask: 4*******

******sim cycle: 804, clock mask: 11*******

******sim cycle: 805, clock mask: 4*******

******sim cycle: 805, clock mask: 11*******

******sim cycle: 806, clock mask: 4*******

******sim cycle: 806, clock mask: 11*******

******sim cycle: 807, clock mask: 11*******

******sim cycle: 808, clock mask: 4*******

******sim cycle: 808, clock mask: 11*******

******sim cycle: 809, clock mask: 4*******

******sim cycle: 809, clock mask: 11*******

******sim cycle: 810, clock mask: 4*******

******sim cycle: 810, clock mask: 11*******

******sim cycle: 811, clock mask: 11*******

******sim cycle: 812, clock mask: 4*******

******sim cycle: 812, clock mask: 11*******

******sim cycle: 813, clock mask: 4*******

******sim cycle: 813, clock mask: 11*******

******sim cycle: 814, clock mask: 4*******

******sim cycle: 814, clock mask: 11*******

******sim cycle: 815, clock mask: 11*******

******sim cycle: 816, clock mask: 4*******

******sim cycle: 816, clock mask: 11*******

******sim cycle: 817, clock mask: 4*******

******sim cycle: 817, clock mask: 11*******

******sim cycle: 818, clock mask: 4*******

******sim cycle: 818, clock mask: 11*******

******sim cycle: 819, clock mask: 11*******

******sim cycle: 820, clock mask: 4*******

******sim cycle: 820, clock mask: 11*******

******sim cycle: 821, clock mask: 4*******

******sim cycle: 821, clock mask: 11*******

******sim cycle: 822, clock mask: 4*******

******sim cycle: 822, clock mask: 11*******

******sim cycle: 823, clock mask: 11*******

******sim cycle: 824, clock mask: 4*******

******sim cycle: 824, clock mask: 11*******

******sim cycle: 825, clock mask: 4*******

******sim cycle: 825, clock mask: 11*******

******sim cycle: 826, clock mask: 4*******

******sim cycle: 826, clock mask: 11*******

******sim cycle: 827, clock mask: 11*******

******sim cycle: 828, clock mask: 4*******

******sim cycle: 828, clock mask: 11*******

******sim cycle: 829, clock mask: 4*******

******sim cycle: 829, clock mask: 11*******

******sim cycle: 830, clock mask: 4*******

******sim cycle: 830, clock mask: 11*******

******sim cycle: 831, clock mask: 11*******

******sim cycle: 832, clock mask: 4*******

******sim cycle: 832, clock mask: 11*******

******sim cycle: 833, clock mask: 4*******

******sim cycle: 833, clock mask: 11*******

******sim cycle: 834, clock mask: 4*******

******sim cycle: 834, clock mask: 11*******

******sim cycle: 835, clock mask: 11*******

******sim cycle: 836, clock mask: 4*******

******sim cycle: 836, clock mask: 11*******

******sim cycle: 837, clock mask: 4*******

******sim cycle: 837, clock mask: 11*******

******sim cycle: 838, clock mask: 4*******

******sim cycle: 838, clock mask: 11*******

******sim cycle: 839, clock mask: 11*******

******sim cycle: 840, clock mask: 4*******

******sim cycle: 840, clock mask: 11*******

******sim cycle: 841, clock mask: 4*******

******sim cycle: 841, clock mask: 11*******

******sim cycle: 842, clock mask: 4*******

******sim cycle: 842, clock mask: 11*******

******sim cycle: 843, clock mask: 11*******

******sim cycle: 844, clock mask: 4*******

******sim cycle: 844, clock mask: 11*******

******sim cycle: 845, clock mask: 4*******

******sim cycle: 845, clock mask: 11*******

******sim cycle: 846, clock mask: 4*******

******sim cycle: 846, clock mask: 11*******

******sim cycle: 847, clock mask: 11*******

******sim cycle: 848, clock mask: 4*******

******sim cycle: 848, clock mask: 11*******

******sim cycle: 849, clock mask: 4*******

******sim cycle: 849, clock mask: 11*******

******sim cycle: 850, clock mask: 4*******

******sim cycle: 850, clock mask: 11*******

******sim cycle: 851, clock mask: 4*******

******sim cycle: 851, clock mask: 11*******

******sim cycle: 852, clock mask: 11*******

******sim cycle: 853, clock mask: 4*******

******sim cycle: 853, clock mask: 11*******

******sim cycle: 854, clock mask: 4*******

******sim cycle: 854, clock mask: 11*******

******sim cycle: 855, clock mask: 4*******

******sim cycle: 855, clock mask: 11*******

******sim cycle: 856, clock mask: 11*******

******sim cycle: 857, clock mask: 4*******

******sim cycle: 857, clock mask: 11*******

******sim cycle: 858, clock mask: 4*******

******sim cycle: 858, clock mask: 11*******

******sim cycle: 859, clock mask: 4*******

******sim cycle: 859, clock mask: 11*******

******sim cycle: 860, clock mask: 11*******

******sim cycle: 861, clock mask: 4*******

******sim cycle: 861, clock mask: 11*******

******sim cycle: 862, clock mask: 4*******

******sim cycle: 862, clock mask: 11*******

******sim cycle: 863, clock mask: 4*******

******sim cycle: 863, clock mask: 11*******

******sim cycle: 864, clock mask: 11*******

******sim cycle: 865, clock mask: 4*******

******sim cycle: 865, clock mask: 11*******

******sim cycle: 866, clock mask: 4*******

******sim cycle: 866, clock mask: 11*******

******sim cycle: 867, clock mask: 4*******

******sim cycle: 867, clock mask: 11*******

******sim cycle: 868, clock mask: 11*******

******sim cycle: 869, clock mask: 4*******

******sim cycle: 869, clock mask: 11*******

******sim cycle: 870, clock mask: 4*******

******sim cycle: 870, clock mask: 11*******

******sim cycle: 871, clock mask: 4*******

******sim cycle: 871, clock mask: 11*******

******sim cycle: 872, clock mask: 11*******

******sim cycle: 873, clock mask: 4*******

******sim cycle: 873, clock mask: 11*******

******sim cycle: 874, clock mask: 4*******

******sim cycle: 874, clock mask: 11*******

******sim cycle: 875, clock mask: 4*******

******sim cycle: 875, clock mask: 11*******

******sim cycle: 876, clock mask: 11*******

******sim cycle: 877, clock mask: 4*******

******sim cycle: 877, clock mask: 11*******

******sim cycle: 878, clock mask: 4*******

******sim cycle: 878, clock mask: 11*******

******sim cycle: 879, clock mask: 4*******

******sim cycle: 879, clock mask: 11*******

******sim cycle: 880, clock mask: 11*******

******sim cycle: 881, clock mask: 4*******

******sim cycle: 881, clock mask: 11*******

******sim cycle: 882, clock mask: 4*******

******sim cycle: 882, clock mask: 11*******

******sim cycle: 883, clock mask: 4*******

******sim cycle: 883, clock mask: 11*******

******sim cycle: 884, clock mask: 11*******

******sim cycle: 885, clock mask: 4*******

******sim cycle: 885, clock mask: 11*******

******sim cycle: 886, clock mask: 4*******

******sim cycle: 886, clock mask: 11*******

******sim cycle: 887, clock mask: 4*******

******sim cycle: 887, clock mask: 11*******

******sim cycle: 888, clock mask: 11*******

******sim cycle: 889, clock mask: 4*******

******sim cycle: 889, clock mask: 11*******

******sim cycle: 890, clock mask: 4*******

******sim cycle: 890, clock mask: 11*******

******sim cycle: 891, clock mask: 4*******

******sim cycle: 891, clock mask: 11*******

******sim cycle: 892, clock mask: 11*******

******sim cycle: 893, clock mask: 4*******

******sim cycle: 893, clock mask: 11*******

******sim cycle: 894, clock mask: 4*******

******sim cycle: 894, clock mask: 11*******

******sim cycle: 895, clock mask: 4*******

******sim cycle: 895, clock mask: 11*******

******sim cycle: 896, clock mask: 11*******

******sim cycle: 897, clock mask: 4*******

******sim cycle: 897, clock mask: 11*******

******sim cycle: 898, clock mask: 4*******

******sim cycle: 898, clock mask: 11*******

******sim cycle: 899, clock mask: 4*******

******sim cycle: 899, clock mask: 11*******

******sim cycle: 900, clock mask: 11*******

******sim cycle: 901, clock mask: 4*******

******sim cycle: 901, clock mask: 11*******

******sim cycle: 902, clock mask: 4*******

******sim cycle: 902, clock mask: 11*******

******sim cycle: 903, clock mask: 4*******

******sim cycle: 903, clock mask: 11*******

******sim cycle: 904, clock mask: 11*******

******sim cycle: 905, clock mask: 4*******

******sim cycle: 905, clock mask: 11*******

******sim cycle: 906, clock mask: 4*******

******sim cycle: 906, clock mask: 11*******

******sim cycle: 907, clock mask: 4*******

******sim cycle: 907, clock mask: 11*******

******sim cycle: 908, clock mask: 11*******

******sim cycle: 909, clock mask: 4*******

******sim cycle: 909, clock mask: 11*******

******sim cycle: 910, clock mask: 4*******

******sim cycle: 910, clock mask: 11*******

******sim cycle: 911, clock mask: 4*******

******sim cycle: 911, clock mask: 11*******

******sim cycle: 912, clock mask: 11*******

******sim cycle: 913, clock mask: 4*******

******sim cycle: 913, clock mask: 11*******

******sim cycle: 914, clock mask: 4*******

******sim cycle: 914, clock mask: 11*******

******sim cycle: 915, clock mask: 4*******

******sim cycle: 915, clock mask: 11*******

******sim cycle: 916, clock mask: 11*******

******sim cycle: 917, clock mask: 4*******

******sim cycle: 917, clock mask: 11*******

******sim cycle: 918, clock mask: 4*******

******sim cycle: 918, clock mask: 11*******

******sim cycle: 919, clock mask: 4*******

******sim cycle: 919, clock mask: 11*******

******sim cycle: 920, clock mask: 11*******

******sim cycle: 921, clock mask: 4*******

******sim cycle: 921, clock mask: 11*******

******sim cycle: 922, clock mask: 4*******

******sim cycle: 922, clock mask: 11*******

******sim cycle: 923, clock mask: 4*******

******sim cycle: 923, clock mask: 11*******

******sim cycle: 924, clock mask: 11*******

******sim cycle: 925, clock mask: 4*******

******sim cycle: 925, clock mask: 11*******

******sim cycle: 926, clock mask: 4*******

******sim cycle: 926, clock mask: 11*******

******sim cycle: 927, clock mask: 4*******

******sim cycle: 927, clock mask: 11*******

******sim cycle: 928, clock mask: 11*******

******sim cycle: 929, clock mask: 4*******

******sim cycle: 929, clock mask: 11*******

******sim cycle: 930, clock mask: 4*******

******sim cycle: 930, clock mask: 11*******

******sim cycle: 931, clock mask: 4*******

******sim cycle: 931, clock mask: 11*******

******sim cycle: 932, clock mask: 11*******

******sim cycle: 933, clock mask: 4*******

******sim cycle: 933, clock mask: 11*******

******sim cycle: 934, clock mask: 4*******

******sim cycle: 934, clock mask: 11*******

******sim cycle: 935, clock mask: 4*******

******sim cycle: 935, clock mask: 11*******

******sim cycle: 936, clock mask: 11*******

******sim cycle: 937, clock mask: 4*******

******sim cycle: 937, clock mask: 11*******

******sim cycle: 938, clock mask: 4*******

******sim cycle: 938, clock mask: 11*******

******sim cycle: 939, clock mask: 4*******

******sim cycle: 939, clock mask: 11*******

******sim cycle: 940, clock mask: 11*******

******sim cycle: 941, clock mask: 4*******

******sim cycle: 941, clock mask: 11*******

******sim cycle: 942, clock mask: 4*******

******sim cycle: 942, clock mask: 11*******

******sim cycle: 943, clock mask: 4*******

******sim cycle: 943, clock mask: 11*******

******sim cycle: 944, clock mask: 11*******

******sim cycle: 945, clock mask: 4*******

******sim cycle: 945, clock mask: 11*******

******sim cycle: 946, clock mask: 4*******

******sim cycle: 946, clock mask: 11*******

******sim cycle: 947, clock mask: 4*******

******sim cycle: 947, clock mask: 11*******

******sim cycle: 948, clock mask: 11*******

******sim cycle: 949, clock mask: 4*******

******sim cycle: 949, clock mask: 11*******

******sim cycle: 950, clock mask: 4*******

******sim cycle: 950, clock mask: 11*******

******sim cycle: 951, clock mask: 4*******

******sim cycle: 951, clock mask: 11*******

******sim cycle: 952, clock mask: 11*******

******sim cycle: 953, clock mask: 4*******

******sim cycle: 953, clock mask: 11*******

******sim cycle: 954, clock mask: 4*******

******sim cycle: 954, clock mask: 11*******

******sim cycle: 955, clock mask: 4*******

******sim cycle: 955, clock mask: 11*******

******sim cycle: 956, clock mask: 11*******

******sim cycle: 957, clock mask: 4*******

******sim cycle: 957, clock mask: 11*******

******sim cycle: 958, clock mask: 4*******

******sim cycle: 958, clock mask: 11*******

******sim cycle: 959, clock mask: 4*******

******sim cycle: 959, clock mask: 11*******

******sim cycle: 960, clock mask: 11*******

******sim cycle: 961, clock mask: 4*******

******sim cycle: 961, clock mask: 11*******

******sim cycle: 962, clock mask: 4*******

******sim cycle: 962, clock mask: 11*******

******sim cycle: 963, clock mask: 4*******

******sim cycle: 963, clock mask: 11*******

******sim cycle: 964, clock mask: 11*******

******sim cycle: 965, clock mask: 4*******

******sim cycle: 965, clock mask: 11*******

******sim cycle: 966, clock mask: 4*******

******sim cycle: 966, clock mask: 11*******

******sim cycle: 967, clock mask: 4*******

******sim cycle: 967, clock mask: 11*******

******sim cycle: 968, clock mask: 11*******

******sim cycle: 969, clock mask: 4*******

******sim cycle: 969, clock mask: 11*******

******sim cycle: 970, clock mask: 4*******

******sim cycle: 970, clock mask: 11*******

******sim cycle: 971, clock mask: 4*******

******sim cycle: 971, clock mask: 11*******

******sim cycle: 972, clock mask: 11*******

******sim cycle: 973, clock mask: 4*******

******sim cycle: 973, clock mask: 11*******

******sim cycle: 974, clock mask: 4*******

******sim cycle: 974, clock mask: 11*******

******sim cycle: 975, clock mask: 4*******

******sim cycle: 975, clock mask: 11*******

******sim cycle: 976, clock mask: 11*******

******sim cycle: 977, clock mask: 4*******

******sim cycle: 977, clock mask: 11*******

******sim cycle: 978, clock mask: 4*******

******sim cycle: 978, clock mask: 11*******

******sim cycle: 979, clock mask: 4*******

******sim cycle: 979, clock mask: 11*******

******sim cycle: 980, clock mask: 11*******

******sim cycle: 981, clock mask: 4*******

******sim cycle: 981, clock mask: 11*******

******sim cycle: 982, clock mask: 4*******

******sim cycle: 982, clock mask: 11*******

******sim cycle: 983, clock mask: 4*******

******sim cycle: 983, clock mask: 11*******

******sim cycle: 984, clock mask: 11*******

******sim cycle: 985, clock mask: 4*******

******sim cycle: 985, clock mask: 11*******

******sim cycle: 986, clock mask: 4*******

******sim cycle: 986, clock mask: 11*******

******sim cycle: 987, clock mask: 4*******

******sim cycle: 987, clock mask: 11*******

******sim cycle: 988, clock mask: 11*******

******sim cycle: 989, clock mask: 4*******

******sim cycle: 989, clock mask: 11*******

******sim cycle: 990, clock mask: 4*******

******sim cycle: 990, clock mask: 11*******

******sim cycle: 991, clock mask: 4*******

******sim cycle: 991, clock mask: 11*******

******sim cycle: 992, clock mask: 11*******

******sim cycle: 993, clock mask: 4*******

******sim cycle: 993, clock mask: 11*******

******sim cycle: 994, clock mask: 4*******

******sim cycle: 994, clock mask: 11*******

******sim cycle: 995, clock mask: 4*******

******sim cycle: 995, clock mask: 11*******

[...]

******sim cycle: 6455, clock mask: 11*******
1,4,707,0,0,27840,.DFMA,27814,27827,8,3,1,0,0,0,4,0,2,0,-1,4,32,0,0,-1,0x570 
checking hazards
******sim cycle: 6456, clock mask: 4*******

******sim cycle: 6456, clock mask: 11*******
checking hazards
******sim cycle: 6457, clock mask: 4*******

******sim cycle: 6457, clock mask: 11*******
checking hazards
******sim cycle: 6458, clock mask: 11*******
checking hazards
******sim cycle: 6459, clock mask: 4*******

******sim cycle: 6459, clock mask: 11*******
checking hazards
******sim cycle: 6460, clock mask: 4*******

******sim cycle: 6460, clock mask: 11*******
checking hazards
******sim cycle: 6461, clock mask: 4*******

******sim cycle: 6461, clock mask: 11*******
checking hazards
******sim cycle: 6462, clock mask: 11*******
checking hazards
******sim cycle: 6463, clock mask: 4*******

******sim cycle: 6463, clock mask: 11*******
checking hazards
******sim cycle: 6464, clock mask: 4*******

******sim cycle: 6464, clock mask: 11*******
1,4,708,0,0,27849,.F2F.F32.F64,27814,27840,4,1,1,0,0,0,1,0,3,0,-1,2,32,0,0,-1,0x580 
checking hazards
******sim cycle: 6465, clock mask: 4*******

******sim cycle: 6465, clock mask: 11*******
checking hazards
******sim cycle: 6466, clock mask: 11*******
checking hazards
******sim cycle: 6467, clock mask: 4*******

******sim cycle: 6467, clock mask: 11*******
1,4,709,0,0,27852,.STS,27840,27849,1,2,0,0,1,4,11,0,6,0,-1,1,32,0,0,-1,0x590 
checking hazards
******sim cycle: 6468, clock mask: 4*******

******sim cycle: 6468, clock mask: 11*******
checking hazards
******sim cycle: 6469, clock mask: 4*******

******sim cycle: 6469, clock mask: 11*******
checking hazards
******sim cycle: 6470, clock mask: 11*******
checking hazards
******sim cycle: 6471, clock mask: 4*******

******sim cycle: 6471, clock mask: 11*******
1,4,711,0,0,27856,.BAR.SYNC,27850,27851,1,0,0,0,0,0,13,0,3,0,-1,1,32,0,0,-1,0x5b0 
checking hazards
******sim cycle: 6472, clock mask: 4*******

******sim cycle: 6472, clock mask: 11*******
checking hazards
******sim cycle: 6473, clock mask: 4*******

******sim cycle: 6473, clock mask: 11*******
1,4,710,0,0,27858,.NOP,27840,27850,4,0,0,0,0,0,1,0,3,0,-1,2,32,0,0,-1,0x5a0 
checking hazards
******sim cycle: 6474, clock mask: 11*******
checking hazards
******sim cycle: 6475, clock mask: 4*******

******sim cycle: 6475, clock mask: 11*******
checking hazards
******sim cycle: 6476, clock mask: 4*******

******sim cycle: 6476, clock mask: 11*******
checking hazards
******sim cycle: 6477, clock mask: 4*******

******sim cycle: 6477, clock mask: 11*******
checking hazards
******sim cycle: 6478, clock mask: 11*******
checking hazards
******sim cycle: 6479, clock mask: 4*******

******sim cycle: 6479, clock mask: 11*******
checking hazards
******sim cycle: 6480, clock mask: 4*******

******sim cycle: 6480, clock mask: 11*******
checking hazards
******sim cycle: 6481, clock mask: 4*******

******sim cycle: 6481, clock mask: 11*******
checking hazards
******sim cycle: 6482, clock mask: 11*******
checking hazards
******sim cycle: 6483, clock mask: 4*******

******sim cycle: 6483, clock mask: 11*******
checking hazards
******sim cycle: 6484, clock mask: 4*******

******sim cycle: 6484, clock mask: 11*******
checking hazards
******sim cycle: 6485, clock mask: 4*******

******sim cycle: 6485, clock mask: 11*******
checking hazards
******sim cycle: 6486, clock mask: 11*******
checking hazards
******sim cycle: 6487, clock mask: 4*******

******sim cycle: 6487, clock mask: 11*******
checking hazards
******sim cycle: 6488, clock mask: 4*******

******sim cycle: 6488, clock mask: 11*******
checking hazards
******sim cycle: 6489, clock mask: 4*******

******sim cycle: 6489, clock mask: 11*******
checking hazards
******sim cycle: 6490, clock mask: 11*******
checking hazards
******sim cycle: 6491, clock mask: 4*******

******sim cycle: 6491, clock mask: 11*******
1,4,712,0,0,27876,.LDS.U,27850,27852,1,1,1,1,0,4,8,0,6,0,-1,1,32,0,0,-1,0x5c0 
checking hazardsmem access revoed from here,
mem access revoed from here,
mem access revoed from here,
mem access revoed from here,

******sim cycle: 6492, clock mask: 4*******

******sim cycle: 6492, clock mask: 11*******
checking hazards
******sim cycle: 6493, clock mask: 4*******

******sim cycle: 6493, clock mask: 11*******

******sim cycle: 6494, clock mask: 11*******

******sim cycle: 6495, clock mask: 4*******

******sim cycle: 6495, clock mask: 11*******

******sim cycle: 6496, clock mask: 4*******

******sim cycle: 6496, clock mask: 11*******

******sim cycle: 6497, clock mask: 4*******

******sim cycle: 6497, clock mask: 11*******
1,4,714,0,0,27882,.EXIT,27852,27877,1,0,0,0,0,0,17,0,3,0,-1,1,32,0,0,-1,0x5e0 
1,4,713,0,0,27882,.STG.E.SYS,27852,27876,1,2,0,0,1,4,11,0,6,0,-1,1,32,0,0,-1,0x5d0 

******sim cycle: 6498, clock mask: 11*******

******sim cycle: 6499, clock mask: 4*******

******sim cycle: 6499, clock mask: 11*******

******sim cycle: 6500, clock mask: 4*******

******sim cycle: 6500, clock mask: 11*******

******sim cycle: 6501, clock mask: 4*******

******sim cycle: 6501, clock mask: 11*******

******sim cycle: 6502, clock mask: 11*******

******sim cycle: 6503, clock mask: 4*******

******sim cycle: 6503, clock mask: 11*******

******sim cycle: 6504, clock mask: 4*******

******sim cycle: 6504, clock mask: 11*******

******sim cycle: 6505, clock mask: 4*******

******sim cycle: 6505, clock mask: 11*******

******sim cycle: 6506, clock mask: 11*******

******sim cycle: 6507, clock mask: 4*******

******sim cycle: 6507, clock mask: 11*******

******sim cycle: 6508, clock mask: 4*******

******sim cycle: 6508, clock mask: 11*******

******sim cycle: 6509, clock mask: 4*******

******sim cycle: 6509, clock mask: 11*******

******sim cycle: 6510, clock mask: 11*******

******sim cycle: 6511, clock mask: 4*******

******sim cycle: 6511, clock mask: 11*******

******sim cycle: 6512, clock mask: 4*******

******sim cycle: 6512, clock mask: 11*******

******sim cycle: 6513, clock mask: 4*******

******sim cycle: 6513, clock mask: 11*******

******sim cycle: 6514, clock mask: 11*******

******sim cycle: 6515, clock mask: 4*******

******sim cycle: 6515, clock mask: 11*******

******sim cycle: 6516, clock mask: 4*******

******sim cycle: 6516, clock mask: 11*******

******sim cycle: 6517, clock mask: 4*******

******sim cycle: 6517, clock mask: 11*******

******sim cycle: 6518, clock mask: 11*******

******sim cycle: 6519, clock mask: 4*******

******sim cycle: 6519, clock mask: 11*******

******sim cycle: 6520, clock mask: 4*******

******sim cycle: 6520, clock mask: 11*******

******sim cycle: 6521, clock mask: 4*******

******sim cycle: 6521, clock mask: 11*******

******sim cycle: 6522, clock mask: 11*******

******sim cycle: 6523, clock mask: 4*******

******sim cycle: 6523, clock mask: 11*******

******sim cycle: 6524, clock mask: 4*******

******sim cycle: 6524, clock mask: 11*******

******sim cycle: 6525, clock mask: 4*******

******sim cycle: 6525, clock mask: 11*******

******sim cycle: 6526, clock mask: 11*******

******sim cycle: 6527, clock mask: 4*******

******sim cycle: 6527, clock mask: 11*******

******sim cycle: 6528, clock mask: 4*******

******sim cycle: 6528, clock mask: 11*******

******sim cycle: 6529, clock mask: 4*******

******sim cycle: 6529, clock mask: 11*******

******sim cycle: 6530, clock mask: 11*******

******sim cycle: 6531, clock mask: 4*******

******sim cycle: 6531, clock mask: 11*******

******sim cycle: 6532, clock mask: 4*******

******sim cycle: 6532, clock mask: 11*******

******sim cycle: 6533, clock mask: 4*******

******sim cycle: 6533, clock mask: 11*******

******sim cycle: 6534, clock mask: 11*******

******sim cycle: 6535, clock mask: 4*******

******sim cycle: 6535, clock mask: 11*******

******sim cycle: 6536, clock mask: 4*******

******sim cycle: 6536, clock mask: 11*******

******sim cycle: 6537, clock mask: 4*******

******sim cycle: 6537, clock mask: 11*******

******sim cycle: 6538, clock mask: 11*******

******sim cycle: 6539, clock mask: 4*******

******sim cycle: 6539, clock mask: 11*******

******sim cycle: 6540, clock mask: 4*******

******sim cycle: 6540, clock mask: 11*******

******sim cycle: 6541, clock mask: 4*******

******sim cycle: 6541, clock mask: 11*******

******sim cycle: 6542, clock mask: 11*******

******sim cycle: 6543, clock mask: 4*******

******sim cycle: 6543, clock mask: 11*******

******sim cycle: 6544, clock mask: 4*******

******sim cycle: 6544, clock mask: 11*******

******sim cycle: 6545, clock mask: 4*******

******sim cycle: 6545, clock mask: 11*******

******sim cycle: 6546, clock mask: 11*******

******sim cycle: 6547, clock mask: 4*******

******sim cycle: 6547, clock mask: 11*******

******sim cycle: 6548, clock mask: 4*******

******sim cycle: 6548, clock mask: 11*******

******sim cycle: 6549, clock mask: 4*******

******sim cycle: 6549, clock mask: 11*******

******sim cycle: 6550, clock mask: 11*******

******sim cycle: 6551, clock mask: 4*******

******sim cycle: 6551, clock mask: 11*******

******sim cycle: 6552, clock mask: 4*******

******sim cycle: 6552, clock mask: 11*******

******sim cycle: 6553, clock mask: 4*******

******sim cycle: 6553, clock mask: 11*******

******sim cycle: 6554, clock mask: 11*******

******sim cycle: 6555, clock mask: 4*******

******sim cycle: 6555, clock mask: 11*******

******sim cycle: 6556, clock mask: 4*******

******sim cycle: 6556, clock mask: 11*******

******sim cycle: 6557, clock mask: 4*******

******sim cycle: 6557, clock mask: 11*******

******sim cycle: 6558, clock mask: 11*******

******sim cycle: 6559, clock mask: 4*******

******sim cycle: 6559, clock mask: 11*******

******sim cycle: 6560, clock mask: 4*******

******sim cycle: 6560, clock mask: 11*******

******sim cycle: 6561, clock mask: 4*******

******sim cycle: 6561, clock mask: 11*******

******sim cycle: 6562, clock mask: 11*******

******sim cycle: 6563, clock mask: 4*******

******sim cycle: 6563, clock mask: 11*******

******sim cycle: 6564, clock mask: 4*******

******sim cycle: 6564, clock mask: 11*******

******sim cycle: 6565, clock mask: 4*******

******sim cycle: 6565, clock mask: 11*******

******sim cycle: 6566, clock mask: 11*******

******sim cycle: 6567, clock mask: 4*******

******sim cycle: 6567, clock mask: 11*******

******sim cycle: 6568, clock mask: 4*******

******sim cycle: 6568, clock mask: 11*******

******sim cycle: 6569, clock mask: 4*******

******sim cycle: 6569, clock mask: 11*******

******sim cycle: 6570, clock mask: 11*******

******sim cycle: 6571, clock mask: 4*******

******sim cycle: 6571, clock mask: 11*******

******sim cycle: 6572, clock mask: 4*******

******sim cycle: 6572, clock mask: 11*******

******sim cycle: 6573, clock mask: 4*******

******sim cycle: 6573, clock mask: 11*******

******sim cycle: 6574, clock mask: 11*******

******sim cycle: 6575, clock mask: 4*******

******sim cycle: 6575, clock mask: 11*******

******sim cycle: 6576, clock mask: 4*******

******sim cycle: 6576, clock mask: 11*******

******sim cycle: 6577, clock mask: 4*******

******sim cycle: 6577, clock mask: 11*******

******sim cycle: 6578, clock mask: 11*******

******sim cycle: 6579, clock mask: 4*******

******sim cycle: 6579, clock mask: 11*******

******sim cycle: 6580, clock mask: 4*******

******sim cycle: 6580, clock mask: 11*******

******sim cycle: 6581, clock mask: 4*******

******sim cycle: 6581, clock mask: 11*******

******sim cycle: 6582, clock mask: 11*******

******sim cycle: 6583, clock mask: 4*******

******sim cycle: 6583, clock mask: 11*******

******sim cycle: 6584, clock mask: 4*******

******sim cycle: 6584, clock mask: 11*******

******sim cycle: 6585, clock mask: 4*******

******sim cycle: 6585, clock mask: 11*******

******sim cycle: 6586, clock mask: 11*******

******sim cycle: 6587, clock mask: 4*******

******sim cycle: 6587, clock mask: 11*******

******sim cycle: 6588, clock mask: 4*******

******sim cycle: 6588, clock mask: 11*******

******sim cycle: 6589, clock mask: 4*******

******sim cycle: 6589, clock mask: 11*******

******sim cycle: 6590, clock mask: 11*******

******sim cycle: 6591, clock mask: 4*******

******sim cycle: 6591, clock mask: 11*******

******sim cycle: 6592, clock mask: 4*******

******sim cycle: 6592, clock mask: 11*******

******sim cycle: 6593, clock mask: 4*******

******sim cycle: 6593, clock mask: 11*******

******sim cycle: 6594, clock mask: 11*******

******sim cycle: 6595, clock mask: 4*******

******sim cycle: 6595, clock mask: 11*******

******sim cycle: 6596, clock mask: 4*******

******sim cycle: 6596, clock mask: 11*******

******sim cycle: 6597, clock mask: 4*******

******sim cycle: 6597, clock mask: 11*******

******sim cycle: 6598, clock mask: 11*******

******sim cycle: 6599, clock mask: 4*******

******sim cycle: 6599, clock mask: 11*******

******sim cycle: 6600, clock mask: 4*******

******sim cycle: 6600, clock mask: 11*******

******sim cycle: 6601, clock mask: 4*******

******sim cycle: 6601, clock mask: 11*******

******sim cycle: 6602, clock mask: 11*******

******sim cycle: 6603, clock mask: 4*******

******sim cycle: 6603, clock mask: 11*******

******sim cycle: 6604, clock mask: 4*******

******sim cycle: 6604, clock mask: 11*******

******sim cycle: 6605, clock mask: 4*******

******sim cycle: 6605, clock mask: 11*******

******sim cycle: 6606, clock mask: 11*******

******sim cycle: 6607, clock mask: 4*******

******sim cycle: 6607, clock mask: 11*******

******sim cycle: 6608, clock mask: 4*******

******sim cycle: 6608, clock mask: 11*******

******sim cycle: 6609, clock mask: 4*******

******sim cycle: 6609, clock mask: 11*******

******sim cycle: 6610, clock mask: 11*******

******sim cycle: 6611, clock mask: 4*******

******sim cycle: 6611, clock mask: 11*******

******sim cycle: 6612, clock mask: 4*******

******sim cycle: 6612, clock mask: 11*******

******sim cycle: 6613, clock mask: 4*******

******sim cycle: 6613, clock mask: 11*******

******sim cycle: 6614, clock mask: 11*******

******sim cycle: 6615, clock mask: 4*******

******sim cycle: 6615, clock mask: 11*******

******sim cycle: 6616, clock mask: 4*******

******sim cycle: 6616, clock mask: 11*******

******sim cycle: 6617, clock mask: 4*******

******sim cycle: 6617, clock mask: 11*******

******sim cycle: 6618, clock mask: 11*******

******sim cycle: 6619, clock mask: 4*******

******sim cycle: 6619, clock mask: 11*******

******sim cycle: 6620, clock mask: 4*******

******sim cycle: 6620, clock mask: 11*******

******sim cycle: 6621, clock mask: 4*******

******sim cycle: 6621, clock mask: 11*******

******sim cycle: 6622, clock mask: 11*******

******sim cycle: 6623, clock mask: 4*******

******sim cycle: 6623, clock mask: 11*******

******sim cycle: 6624, clock mask: 4*******

******sim cycle: 6624, clock mask: 11*******

******sim cycle: 6625, clock mask: 4*******

******sim cycle: 6625, clock mask: 11*******

******sim cycle: 6626, clock mask: 11*******

******sim cycle: 6627, clock mask: 4*******

******sim cycle: 6627, clock mask: 11*******

******sim cycle: 6628, clock mask: 4*******

******sim cycle: 6628, clock mask: 11*******

******sim cycle: 6629, clock mask: 4*******

******sim cycle: 6629, clock mask: 11*******

******sim cycle: 6630, clock mask: 11*******

******sim cycle: 6631, clock mask: 4*******

******sim cycle: 6631, clock mask: 11*******

******sim cycle: 6632, clock mask: 4*******

******sim cycle: 6632, clock mask: 11*******

******sim cycle: 6633, clock mask: 4*******

******sim cycle: 6633, clock mask: 11*******

******sim cycle: 6634, clock mask: 4*******

******sim cycle: 6634, clock mask: 11*******

******sim cycle: 6635, clock mask: 11*******

******sim cycle: 6636, clock mask: 4*******

******sim cycle: 6636, clock mask: 11*******

******sim cycle: 6637, clock mask: 4*******

******sim cycle: 6637, clock mask: 11*******

******sim cycle: 6638, clock mask: 4*******

******sim cycle: 6638, clock mask: 11*******

******sim cycle: 6639, clock mask: 11*******

******sim cycle: 6640, clock mask: 4*******

******sim cycle: 6640, clock mask: 11*******

******sim cycle: 6641, clock mask: 4*******

******sim cycle: 6641, clock mask: 11*******

******sim cycle: 6642, clock mask: 4*******

******sim cycle: 6642, clock mask: 11*******

******sim cycle: 6643, clock mask: 11*******

******sim cycle: 6644, clock mask: 4*******

******sim cycle: 6644, clock mask: 11*******

******sim cycle: 6645, clock mask: 4*******

******sim cycle: 6645, clock mask: 11*******

******sim cycle: 6646, clock mask: 4*******

******sim cycle: 6646, clock mask: 11*******

******sim cycle: 6647, clock mask: 11*******

******sim cycle: 6648, clock mask: 4*******

******sim cycle: 6648, clock mask: 11*******

******sim cycle: 6649, clock mask: 4*******

******sim cycle: 6649, clock mask: 11*******

******sim cycle: 6650, clock mask: 4*******

******sim cycle: 6650, clock mask: 11*******

******sim cycle: 6651, clock mask: 11*******

******sim cycle: 6652, clock mask: 4*******

******sim cycle: 6652, clock mask: 11*******

******sim cycle: 6653, clock mask: 4*******

******sim cycle: 6653, clock mask: 11*******

******sim cycle: 6654, clock mask: 4*******

******sim cycle: 6654, clock mask: 11*******

******sim cycle: 6655, clock mask: 11*******

******sim cycle: 6656, clock mask: 4*******

******sim cycle: 6656, clock mask: 11*******

******sim cycle: 6657, clock mask: 4*******

******sim cycle: 6657, clock mask: 11*******

******sim cycle: 6658, clock mask: 4*******

******sim cycle: 6658, clock mask: 11*******

******sim cycle: 6659, clock mask: 11*******

******sim cycle: 6660, clock mask: 4*******

******sim cycle: 6660, clock mask: 11*******

******sim cycle: 6661, clock mask: 4*******

******sim cycle: 6661, clock mask: 11*******

******sim cycle: 6662, clock mask: 4*******

******sim cycle: 6662, clock mask: 11*******

******sim cycle: 6663, clock mask: 11*******

******sim cycle: 6664, clock mask: 4*******

******sim cycle: 6664, clock mask: 11*******

******sim cycle: 6665, clock mask: 4*******

******sim cycle: 6665, clock mask: 11*******

******sim cycle: 6666, clock mask: 4*******

******sim cycle: 6666, clock mask: 11*******

******sim cycle: 6667, clock mask: 11*******

******sim cycle: 6668, clock mask: 4*******

******sim cycle: 6668, clock mask: 11*******

******sim cycle: 6669, clock mask: 4*******

******sim cycle: 6669, clock mask: 11*******

******sim cycle: 6670, clock mask: 4*******

******sim cycle: 6670, clock mask: 11*******

******sim cycle: 6671, clock mask: 11*******

******sim cycle: 6672, clock mask: 4*******

******sim cycle: 6672, clock mask: 11*******

******sim cycle: 6673, clock mask: 4*******

******sim cycle: 6673, clock mask: 11*******

******sim cycle: 6674, clock mask: 4*******

******sim cycle: 6674, clock mask: 11*******

******sim cycle: 6675, clock mask: 11*******

******sim cycle: 6676, clock mask: 4*******

******sim cycle: 6676, clock mask: 11*******

******sim cycle: 6677, clock mask: 4*******

******sim cycle: 6677, clock mask: 11*******

******sim cycle: 6678, clock mask: 4*******

******sim cycle: 6678, clock mask: 11*******

******sim cycle: 6679, clock mask: 11*******

******sim cycle: 6680, clock mask: 4*******

******sim cycle: 6680, clock mask: 11*******

******sim cycle: 6681, clock mask: 4*******

******sim cycle: 6681, clock mask: 11*******

******sim cycle: 6682, clock mask: 4*******

******sim cycle: 6682, clock mask: 11*******

******sim cycle: 6683, clock mask: 11*******

******sim cycle: 6684, clock mask: 4*******

******sim cycle: 6684, clock mask: 11*******
Destroy streams for kernel 4: size 0


gpgpu_simulation_time = 0 days, 0 hrs, 0 min, 2 sec (2 sec)
gpgpu_simulation_rate = 9697 (inst/sec)
gpgpu_simulation_rate = 14035 (cycle/sec)
gpgpu_silicon_slowdown = 80655x
GPGPU-Sim: *** simulation thread exiting ***
GPGPU-Sim: *** exit detected ***
