

        *** GPGPU-Sim Simulator Version 4.0.0  [build gpgpu-sim_git-commit-90ec3399763d7c8512cfe7dc193473086c38ca38_modified_14.0] ***


addr_dec_mask[CHIP]  = 0000000000001f00 	high:13 low:8
addr_dec_mask[BK]    = 00000000000e2000 	high:20 low:13
addr_dec_mask[ROW]   = 00000001fff00000 	high:33 low:20
addr_dec_mask[COL]   = 000000000001c0ff 	high:17 low:0
addr_dec_mask[BURST] = 000000000000001f 	high:5 low:0
sub_partition_id_mask = 0000000000002000
GPGPU-Sim uArch: clock freqs: 1132000000.000000:1132000000.000000:1132000000.000000:850000000.000000
GPGPU-Sim uArch: clock periods: 0.00000000088339222615:0.00000000088339222615:0.00000000088339222615:0.00000000117647058824
GPGPU-Sim uArch: performance model initialization complete.
launching memcpy command : MemcpyHtoD,0x00007fc725700000,65536
-kernel name = _Z11srad_cuda_1PfS_S_S_S_S_iif
-kernel id = 1
-grid dim = (8,8,1)
-block dim = (16,16,1)
-shmem = 6144
-nregs = 22
-binary version = 70
-cuda stream id = 0
-shmem base_addr = 0x00007fc75b000000
-local mem base_addr = 0x00007fc75d000000
-nvbit version = 1.4
-accelsim tracer version = 3
launching kernel command : /scratch/santosh/gpu_simulation/accel-sim-framework/traces/rodinia_2.0-ft/11.0/srad_v2-rodinia-2.0-ft/__data_matrix128x128_txt_0_127_0_127__5_2___data_result_matrix128x128_1_150_1_100__5_2_txt/traces/kernel-1.traceg
GPGPU-Sim uArch: Shader 0 bind to kernel 1 '_Z11srad_cuda_1PfS_S_S_S_S_iif'
GPGPU-Sim uArch: CTA/core = 16, limited by: shmem
GPGPU-Sim: Reconfigure L1 cache to 120KB
GPGPUsim: cta_size: 32
ctaid: 0, start warp: 0, end_warp: 1, start_thread: 0, end_thread: 32
thread block = 0,0,0
warp id: 0
warp id: 1
warp_id: 0, insts: 261
1,1,1,0,0,5011,.IMAD.MOV.U32,5001,5002,4,2,1,0,0,0,6,0,3,0,-1,2,32,0,0,-1,0,-1,-1,-1,0 
1,1,3,0,0,5012,.S2R,5003,5004,4,0,1,0,0,0,1,0,3,0,-1,2,32,0,0,-1,0x20,-1,-1,-1,0 
1,1,2,0,0,5013,.SHFL.IDX,5001,5003,4,4,0,0,0,0,1,0,3,0,-1,2,0,0,0,-1,0x10,-1,-1,-1,0 
1,1,4,0,0,5014,.IMAD.MOV.U32,5003,5005,4,2,1,0,0,0,6,0,3,0,-1,2,32,0,0,-1,0x30,-1,-1,-1,0 
1,1,5,0,0,5015,.IMAD.MOV.U32,5005,5006,4,2,1,0,0,0,6,0,3,0,-1,2,32,0,0,-1,0x40,-1,-1,-1,0 
1,1,6,0,0,5015,.S2R,5005,5007,4,0,1,0,0,0,1,0,3,0,-1,2,32,0,0,-1,0x50,-1,-1,-1,0 
1,1,7,0,0,5023,.IMAD.SHL.U32,5007,5014,4,2,1,0,0,0,6,0,3,0,-1,2,32,0,0,-1,0x60,-1,-1,-1,0 
1,1,8,0,0,5023,.S2R,5007,5015,4,0,1,0,0,0,1,0,3,0,-1,2,32,0,0,-1,0x70,-1,-1,-1,0 
1,1,9,0,0,5032,.IMAD,5015,5023,4,3,1,0,0,0,6,0,3,0,-1,2,32,0,0,-1,0x80,-1,-1,-1,0 
1,1,10,0,0,5041,.IMAD,5015,5032,4,2,1,0,0,0,6,0,3,0,-1,2,32,0,0,-1,0x90,-1,-1,-1,0 
1,1,11,0,0,5050,.IADD3,5032,5041,4,2,1,0,0,0,6,0,3,0,-1,2,32,0,0,-1,0xa0,-1,-1,-1,0 
1,1,12,0,0,5051,.IADD3,5032,5042,4,3,1,0,0,0,6,0,3,0,-1,2,32,0,0,-1,0xb0,-1,-1,-1,0 
1,1,13,0,0,5059,.IMAD.WIDE,5042,5050,4,2,1,0,0,0,6,0,3,0,-1,2,32,0,0,-1,0xc0,-1,-1,-1,0 
1,1,14,0,0,5060,.IMAD.WIDE,5042,5051,4,2,1,0,0,0,6,0,3,0,-1,2,32,0,0,-1,0xd0,-1,-1,-1,0 
1,1,17,0,0,5070,.IMAD.SHL.U32,5060,5061,4,2,1,0,0,0,6,0,3,0,-1,2,32,0,0,-1,0x100,-1,-1,-1,0 
1,1,18,0,0,5071,.ISETP.NE.AND,5060,5062,4,2,0,0,0,0,6,0,3,0,-1,2,32,0,0,-1,0x110,-1,-1,-1,0 
1,1,19,0,0,5071,.S2R,5062,5063,4,0,1,0,0,0,1,0,3,0,-1,2,32,0,0,-1,0x120,-1,-1,-1,0 
1,1,20,0,0,5080,.IMAD,5062,5071,4,2,1,0,0,0,6,0,3,0,-1,2,32,0,0,-1,0x130,-1,-1,-1,0 
1,1,21,0,0,5081,.IMAD,5071,5072,4,2,1,0,0,0,6,0,3,0,-1,2,32,0,0,-1,0x140,-1,-1,-1,0 
1,1,22,0,0,5089,.IADD3,5071,5080,4,2,1,0,0,0,6,0,3,0,-1,2,32,0,0,-1,0x150,-1,-1,-1,0 
1,1,23,0,0,5090,.IMAD.IADD,5080,5081,4,2,1,0,0,0,6,0,3,0,-1,2,32,0,0,-1,0x160,-1,-1,-1,0 
1,1,16,0,0,5254,.LDG.E.SYS,5051,5060,1,1,1,1,0,4,8,0,6,0,-1,1,32,0,0,-1,0xf0,-1,-1,-1,1 
1,1,15,0,0,5391,.LDG.E.SYS,5051,5059,1,1,1,1,0,4,8,0,6,0,-1,1,32,0,0,-1,0xe0,-1,-1,-1,1 
1,1,24,0,0,5394,.STS,5080,5391,1,2,0,0,1,4,11,0,6,0,-1,1,32,0,0,-1,0x170,-1,-1,-1,0 
1,1,25,0,0,5395,.STS,5391,5392,1,2,0,0,1,4,11,0,6,0,-1,1,32,0,0,-1,0x180,-1,-1,-1,0 
1,1,26,0,0,5401,.BRA,5391,5393,4,0,0,0,0,0,100,0,7,0,-1,4,32,0,0,-1,0x190,-1,-1,-1,0 
1,1,27,0,0,5403,.IMAD,5393,5394,4,2,1,0,0,0,6,0,3,0,-1,2,32,0,0,-1,0x240,-1,-1,-1,0 
1,1,28,0,0,5412,.IMAD.WIDE,5393,5403,4,2,1,0,0,0,6,0,3,0,-1,2,32,0,0,-1,0x250,-1,-1,-1,0 
1,1,29,0,0,5605,.LDG.E.SYS,5403,5412,1,1,1,1,0,4,8,0,6,0,-1,1,32,0,0,-1,0x260,-1,-1,-1,1 
1,1,30,0,0,5608,.STS,5403,5605,1,2,0,0,1,4,11,0,6,0,-1,1,32,0,0,-1,0x270,-1,-1,-1,0 
1,1,33,0,0,5613,.BAR.SYNC,5607,5608,1,0,0,0,0,0,13,0,3,0,-1,1,32,0,0,-1,0x2a0,1,-1,-1,0 
1,1,31,0,0,5615,.IADD3,5605,5606,4,2,1,0,0,0,6,0,3,0,-1,2,32,0,0,-1,0x280,-1,-1,-1,0 
1,1,32,0,0,5615,.NOP,5605,5607,4,0,0,0,0,0,1,0,3,0,-1,2,32,0,0,-1,0x290,-1,-1,-1,0 
1,1,34,0,0,5624,.IMAD.WIDE,5607,5615,4,2,1,0,0,0,6,0,3,0,-1,2,32,0,0,-1,0x2b0,-1,-1,-1,0 
1,1,37,0,0,5635,.ISETP.NE.AND,5625,5626,4,2,0,0,0,0,6,0,3,0,-1,2,32,0,0,-1,0x2e0,-1,-1,-1,0 
1,1,38,0,0,5636,.LEA,5625,5627,4,1,1,0,0,0,6,0,3,0,-1,2,32,0,0,-1,0x2f0,-1,-1,-1,0 
1,1,39,0,0,5637,.IADD3,5627,5628,4,2,1,0,0,0,6,0,3,0,-1,2,32,0,0,-1,0x300,-1,-1,-1,0 
1,1,36,0,0,5819,.LDG.E.SYS,5615,5625,1,1,1,1,0,4,8,0,6,0,-1,1,32,0,0,-1,0x2d0,-1,-1,-1,1 
1,1,35,0,0,5954,.LDG.E.SYS,5615,5624,1,1,1,1,0,4,8,0,6,0,-1,1,32,0,0,-1,0x2c0,-1,-1,-1,1 
1,1,40,0,0,5957,.STS,5627,5954,1,2,0,0,1,4,11,0,6,0,-1,1,32,0,0,-1,0x310,-1,-1,-1,0 
1,1,41,0,0,5958,.STS,5954,5955,1,2,0,0,1,4,11,0,6,0,-1,1,32,0,0,-1,0x320,-1,-1,-1,0 
1,1,42,0,0,5964,.BRA,5954,5956,4,0,0,0,0,0,100,0,7,0,-1,4,32,0,0,-1,0x330,-1,-1,-1,0 
1,1,43,0,0,5966,.IMAD,5956,5957,4,2,1,0,0,0,6,0,3,0,-1,2,32,0,0,-1,0x3f0,-1,-1,-1,0 
1,1,44,0,0,5975,.IMAD.WIDE,5956,5966,4,2,1,0,0,0,6,0,3,0,-1,2,32,0,0,-1,0x400,-1,-1,-1,0 
1,1,45,0,0,6167,.LDG.E.SYS,5966,5975,1,1,1,1,0,4,8,0,6,0,-1,1,32,0,0,-1,0x410,-1,-1,-1,1 
1,1,46,0,0,6170,.STS,5966,6167,1,2,0,0,1,4,11,0,6,0,-1,1,32,0,0,-1,0x420,-1,-1,-1,0 
1,1,49,0,0,6175,.BAR.SYNC,6169,6170,1,0,0,0,0,0,13,0,3,0,-1,1,32,0,0,-1,0x450,1,-1,-1,0 
1,1,47,0,0,6177,.IMAD.WIDE,6167,6168,4,2,1,0,0,0,6,0,3,0,-1,2,32,0,0,-1,0x430,-1,-1,-1,0 
1,1,48,0,0,6177,.NOP,6167,6169,4,0,0,0,0,0,1,0,3,0,-1,2,32,0,0,-1,0x440,-1,-1,-1,0 
1,1,52,0,0,6187,.BMOV.32.CLEAR,6177,6179,4,0,1,0,0,0,100,0,7,0,-1,4,32,0,0,-1,0x480,-1,-1,-1,0 
1,1,51,0,0,6188,.LOP3.LUT,6177,6178,4,4,0,0,0,0,6,0,3,0,-1,2,32,0,0,-1,0x470,-1,-1,-1,0 
1,1,53,0,0,6188,.BSSY,6179,6180,4,0,0,0,0,0,100,0,7,0,-1,4,32,0,0,-1,0x490,-1,-1,-1,0 
1,1,50,0,0,6369,.LDG.E.SYS,6169,6177,1,1,1,1,0,4,8,0,6,0,-1,1,32,0,0,-1,0x460,-1,-1,-1,1 
1,1,54,0,0,6372,.STS,6179,6369,1,2,0,0,1,4,11,0,6,0,-1,1,32,0,0,-1,0x4a0,-1,-1,-1,0 
1,1,56,0,0,6376,.BAR.SYNC,6369,6371,1,0,0,0,0,0,13,0,3,0,-1,1,32,0,0,-1,0x4c0,1,-1,-1,0 
1,1,55,0,0,6378,.NOP,6369,6370,4,0,0,0,0,0,1,0,3,0,-1,2,32,0,0,-1,0x4b0,-1,-1,-1,0 
1,1,58,0,0,6381,.BRA,6371,6373,4,0,0,0,0,0,100,0,7,0,-1,4,1,0,0,-1,0x4e0,-1,-1,-1,0 
1,1,59,0,0,6383,.IADD3,6373,6374,4,2,1,0,0,0,6,0,3,0,-1,2,1,0,0,-1,0x7f0,-1,-1,-1,0 
1,1,60,0,0,6384,.IADD3,6373,6375,4,2,1,0,0,0,6,0,3,0,-1,2,1,0,0,-1,0x800,-1,-1,-1,0 
1,1,61,0,0,6384,.BSYNC,6375,6376,4,0,0,0,0,0,100,0,7,0,-1,4,1,0,0,-1,0x810,-1,-1,-1,0 
1,1,62,0,0,6386,.ISETP.NE.AND,6375,6377,4,1,0,0,0,0,6,0,3,0,-1,2,31,0,0,-1,0x4f0,-1,-1,-1,0 
1,1,63,0,0,6392,.IMAD.MOV.U32,6377,6383,4,2,1,0,0,0,6,0,3,0,-1,2,31,0,0,-1,0x500,-1,-1,-1,0 
1,1,64,0,0,6393,.ISETP.EQ.AND,6377,6384,4,2,0,0,0,0,6,0,3,0,-1,2,31,0,0,-1,0x510,-1,-1,-1,0 
1,1,65,0,0,6394,.IMAD.MOV.U32,6384,6385,4,2,1,0,0,0,6,0,3,0,-1,2,31,0,0,-1,0x520,-1,-1,-1,0 
1,1,66,0,0,6395,.ISETP.NE.AND,6384,6386,4,2,0,0,0,0,6,0,3,0,-1,2,31,0,0,-1,0x530,-1,-1,-1,0 
1,1,67,0,0,6396,.IMAD.MOV.U32,6386,6387,4,2,1,0,0,0,6,0,3,0,-1,2,31,0,0,-1,0x540,-1,-1,-1,0 
1,1,57,0,0,6396,.LDS.U,6371,6372,1,1,1,1,0,4,8,0,6,0,-1,1,32,0,0,-1,0x4d0,-1,-1,-1,0 
1,1,68,0,0,6397,.IMAD.MOV.U32,6386,6388,4,2,1,0,0,0,6,0,3,0,-1,2,31,0,0,-1,0x550,-1,-1,-1,0 
1,1,69,0,0,6397,.BRA,6388,6389,4,0,0,0,0,0,100,0,7,0,-1,4,2,0,0,-1,0x560,-1,-1,-1,0 
1,1,70,0,0,6398,.BSYNC,6388,6390,4,0,0,0,0,0,100,0,7,0,-1,4,1,0,0,-1,0x810,-1,-1,-1,0 
1,1,71,0,0,6400,.ISETP.EQ.AND,6390,6391,4,1,0,0,0,0,6,0,3,0,-1,2,30,0,0,-1,0x570,-1,-1,-1,0 
1,1,72,0,0,6401,.IMAD.MOV.U32,6390,6392,4,2,1,0,0,0,6,0,3,0,-1,2,30,0,0,-1,0x580,-1,-1,-1,0 
1,1,73,0,0,6402,.ISETP.NE.AND,6392,6393,4,1,0,0,0,0,6,0,3,0,-1,2,30,0,0,-1,0x590,-1,-1,-1,0 
1,1,74,0,0,6404,.IMAD.MOV.U32,6392,6394,4,2,1,0,0,0,6,0,3,0,-1,2,30,0,0,-1,0x5a0,-1,-1,-1,0 
1,1,75,0,0,6405,.IMAD.MOV.U32,6394,6396,4,2,1,0,0,0,6,0,3,0,-1,2,30,0,0,-1,0x5b0,-1,-1,-1,0 
1,1,76,0,0,6406,.IMAD.MOV.U32,6394,6397,4,2,1,0,0,0,6,0,3,0,-1,2,30,0,0,-1,0x5c0,-1,-1,-1,0 
1,1,77,0,0,6406,.BRA,6397,6398,4,0,0,0,0,0,100,0,7,0,-1,4,1,0,0,-1,0x5d0,-1,-1,-1,0 
1,1,78,0,0,6409,.ISETP.EQ.AND,6397,6399,4,2,0,0,0,0,6,0,3,0,-1,2,30,0,0,-1,0x5e0,-1,-1,-1,0 
1,1,79,0,0,6413,.IMAD.MOV.U32,6399,6404,4,2,1,0,0,0,6,0,3,0,-1,2,30,0,0,-1,0x5f0,-1,-1,-1,0 
1,1,80,0,0,6414,.ISETP.NE.AND,6399,6405,4,2,0,0,0,0,6,0,3,0,-1,2,30,0,0,-1,0x600,-1,-1,-1,0 
1,1,81,0,0,6415,.IMAD.MOV.U32,6405,6406,4,2,1,0,0,0,6,0,3,0,-1,2,30,0,0,-1,0x610,-1,-1,-1,0 
1,1,82,0,0,6415,.MOV,6405,6407,4,0,1,0,0,0,1,0,3,0,-1,2,30,0,0,-1,0x620,-1,-1,-1,0 
1,1,83,0,0,6417,.IMAD.MOV.U32,6407,6408,4,2,1,0,0,0,6,0,3,0,-1,2,30,0,0,-1,0x630,-1,-1,-1,0 
1,1,84,0,0,6417,.BRA,6407,6409,4,0,0,0,0,0,100,0,7,0,-1,4,0,0,0,-1,0x640,-1,-1,-1,0 
1,1,85,0,0,6426,.IADD3,6409,6417,4,2,1,0,0,0,6,0,3,0,-1,2,14,0,0,-1,0x650,-1,-1,-1,0 
1,1,86,0,0,6427,.IADD3,6409,6418,4,2,1,0,0,0,6,0,3,0,-1,2,14,0,0,-1,0x660,-1,-1,-1,0 
1,1,87,0,0,6428,.IADD3,6418,6419,4,2,1,0,0,0,6,0,3,0,-1,2,14,0,0,-1,0x670,-1,-1,-1,0 
1,1,88,0,0,6429,.IADD3,6418,6420,4,2,1,0,0,0,6,0,3,0,-1,2,14,0,0,-1,0x680,-1,-1,-1,0 
1,1,89,0,0,6429,.BRA,6420,6421,4,0,0,0,0,0,100,0,7,0,-1,4,14,0,0,-1,0x690,-1,-1,-1,0 
1,1,90,0,0,6430,.BSYNC,6420,6422,4,0,0,0,0,0,100,0,7,0,-1,4,14,0,0,-1,0x810,-1,-1,-1,0 
1,1,91,0,0,6431,.BMOV.32.CLEAR,6422,6423,4,0,1,0,0,0,100,0,7,0,-1,4,16,0,0,-1,0x6a0,-1,-1,-1,0 
1,1,92,0,0,6432,.BSSY,6422,6424,4,0,0,0,0,0,100,0,7,0,-1,4,16,0,0,-1,0x6b0,-1,-1,-1,0 
1,1,93,0,0,6433,.BRA,6424,6425,4,0,0,0,0,0,100,0,7,0,-1,4,1,0,0,-1,0x6c0,-1,-1,-1,0 
1,1,94,0,0,6440,.IADD3,6424,6431,4,2,1,0,0,0,6,0,3,0,-1,2,1,0,0,-1,0x790,-1,-1,-1,0 
1,1,95,0,0,6441,.IADD3,6431,6432,4,2,1,0,0,0,6,0,3,0,-1,2,1,0,0,-1,0x7a0,-1,-1,-1,0 
1,1,96,0,0,6442,.IADD3,6431,6433,4,2,1,0,0,0,6,0,3,0,-1,2,1,0,0,-1,0x7b0,-1,-1,-1,0 
1,1,97,0,0,6442,.BSYNC,6433,6434,4,0,0,0,0,0,100,0,7,0,-1,4,1,0,0,-1,0x7c0,-1,-1,-1,0 
1,1,98,0,0,6443,.BMOV.32.CLEAR,6433,6435,4,0,1,0,0,0,100,0,7,0,-1,4,15,0,0,-1,0x6d0,-1,-1,-1,0 
1,1,99,0,0,6444,.BSSY,6435,6436,4,0,0,0,0,0,100,0,7,0,-1,4,15,0,0,-1,0x6e0,-1,-1,-1,0 
1,1,100,0,0,6445,.BRA,6435,6437,4,0,0,0,0,0,100,0,7,0,-1,4,0,0,0,-1,0x6f0,-1,-1,-1,0 
1,1,101,0,0,6452,.IADD3,6437,6443,4,2,1,0,0,0,6,0,3,0,-1,2,14,0,0,-1,0x700,-1,-1,-1,0 
1,1,102,0,0,6461,.IMAD.MOV.U32,6437,6452,4,3,1,0,0,0,6,0,3,0,-1,2,1,0,0,-1,0x710,-1,-1,-1,0 
1,1,103,0,0,6462,.IADD3,6452,6453,4,2,1,0,0,0,6,0,3,0,-1,2,15,0,0,-1,0x720,-1,-1,-1,0 
1,1,104,0,0,6462,.BRA,6452,6454,4,0,0,0,0,0,100,0,7,0,-1,4,15,0,0,-1,0x730,-1,-1,-1,0 
1,1,105,0,0,6463,.BSYNC,6454,6455,4,0,0,0,0,0,100,0,7,0,-1,4,15,0,0,-1,0x760,-1,-1,-1,0 
1,1,106,0,0,6465,.IADD3,6454,6456,4,2,1,0,0,0,6,0,3,0,-1,2,15,0,0,-1,0x770,-1,-1,-1,0 
1,1,107,0,0,6465,.BRA,6456,6457,4,0,0,0,0,0,100,0,7,0,-1,4,15,0,0,-1,0x780,-1,-1,-1,0 
1,1,108,0,0,6466,.BSYNC,6456,6458,4,0,0,0,0,0,100,0,7,0,-1,4,15,0,0,-1,0x7c0,-1,-1,-1,0 
1,1,109,0,0,6468,.IADD3,6458,6459,4,2,1,0,0,0,6,0,3,0,-1,2,16,0,0,-1,0x7d0,-1,-1,-1,0 
1,1,110,0,0,6468,.BRA,6458,6460,4,0,0,0,0,0,100,0,7,0,-1,4,16,0,0,-1,0x7e0,-1,-1,-1,0 
1,1,111,0,0,6469,.BSYNC,6460,6461,4,0,0,0,0,0,100,0,7,0,-1,4,16,0,0,-1,0x810,-1,-1,-1,0 
1,1,113,0,0,6477,.BMOV.32.CLEAR,6468,6469,4,0,1,0,0,0,100,0,7,0,-1,4,32,0,0,-1,0x830,-1,-1,-1,0 
1,1,114,0,0,6478,.BSSY,6468,6470,4,0,0,0,0,0,100,0,7,0,-1,4,32,0,0,-1,0x840,-1,-1,-1,0 
1,1,115,0,0,6480,.FMUL,6470,6471,4,2,1,0,0,0,5,0,1,0,-1,2,32,0,0,-1,0x850,-1,-1,-1,0 
1,1,112,0,0,6493,.LDS.U,6460,6468,1,1,1,1,0,4,8,0,6,0,-1,1,32,0,0,-1,0x820,-1,-1,-1,0 
1,1,116,0,0,6496,.LDS.U,6470,6472,1,1,1,1,0,4,8,0,6,0,-1,1,32,0,0,-1,0x860,-1,-1,-1,0 
1,1,117,0,0,6498,.LDS.U,6472,6473,1,1,1,1,0,4,8,0,6,0,-1,1,32,0,0,-1,0x870,-1,-1,-1,0 
1,1,118,0,0,6500,.LDS.U,6472,6474,1,1,1,1,0,4,8,0,6,0,-1,1,32,0,0,-1,0x880,-1,-1,-1,0 
1,1,119,0,0,6502,.FADD,6474,6493,4,2,1,0,0,0,5,0,1,0,-1,2,32,0,0,-1,0x890,-1,-1,-1,0 
1,1,120,0,0,6505,.FADD,6474,6496,4,2,1,0,0,0,5,0,1,0,-1,2,32,0,0,-1,0x8a0,-1,-1,-1,0 
1,1,121,0,0,6511,.FMUL,6496,6502,4,2,1,0,0,0,5,0,1,0,-1,2,32,0,0,-1,0x8b0,-1,-1,-1,0 
1,1,122,0,0,6512,.FADD,6496,6503,4,2,1,0,0,0,5,0,1,0,-1,2,32,0,0,-1,0x8c0,-1,-1,-1,0 
1,1,123,0,0,6512,.MOV,6503,6504,4,0,1,0,0,0,1,0,3,0,-1,2,32,0,0,-1,0x8d0,-1,-1,-1,0 
1,1,124,0,0,6520,.FFMA,6503,6511,4,3,1,0,0,0,5,0,1,0,-1,2,32,0,0,-1,0x8e0,-1,-1,-1,0 
1,1,125,0,0,6521,.FADD,6511,6512,4,2,1,0,0,0,5,0,1,0,-1,2,32,0,0,-1,0x8f0,-1,-1,-1,0 
1,1,126,0,0,6529,.FFMA,6511,6520,4,3,1,0,0,0,5,0,1,0,-1,2,32,0,0,-1,0x900,-1,-1,-1,0 
1,1,127,0,0,6538,.FFMA,6520,6529,4,3,1,0,0,0,5,0,1,0,-1,2,32,0,0,-1,0x910,-1,-1,-1,0 
1,1,128,0,0,6538,.CALL.REL.NOINC,6520,6530,4,0,0,0,0,0,100,0,7,0,-1,4,32,0,0,-1,0x920,-1,-1,-1,0 
1,1,129,0,0,6541,.SHFL.IDX,6530,6531,4,4,0,0,0,0,1,0,3,0,-1,2,0,0,0,-1,0x1130,-1,-1,-1,0 
1,1,130,0,0,6547,.FCHK,6530,6538,4,2,0,0,0,0,5,0,1,0,-1,2,32,0,0,-1,0x1140,-1,-1,-1,0 
1,1,131,0,0,6547,.BRA,6538,6539,4,0,0,0,0,0,100,0,7,0,-1,4,0,0,0,-1,0x1150,-1,-1,-1,0 
1,1,133,0,0,6550,.FADD.FTZ,6540,6541,4,2,1,0,0,0,5,0,1,0,-1,2,32,0,0,-1,0x1170,-1,-1,-1,0 
1,1,132,0,0,6565,.MUFU.RCP,6538,6540,20,1,1,0,0,0,2,0,4,0,-1,8,32,0,0,-1,0x1160,-1,-1,-1,0 
1,1,134,0,0,6574,.FFMA,6540,6565,4,2,1,0,0,0,5,0,1,0,-1,2,32,0,0,-1,0x1180,-1,-1,-1,0 
1,1,135,0,0,6583,.FFMA,6565,6574,4,3,1,0,0,0,5,0,1,0,-1,2,32,0,0,-1,0x1190,-1,-1,-1,0 
1,1,136,0,0,6592,.FFMA,6565,6583,4,3,1,0,0,0,5,0,1,0,-1,2,32,0,0,-1,0x11a0,-1,-1,-1,0 
1,1,137,0,0,6601,.FFMA,6583,6592,4,3,1,0,0,0,5,0,1,0,-1,2,32,0,0,-1,0x11b0,-1,-1,-1,0 
1,1,138,0,0,6610,.FFMA,6583,6601,4,3,1,0,0,0,5,0,1,0,-1,2,32,0,0,-1,0x11c0,-1,-1,-1,0 
1,1,139,0,0,6619,.FFMA,6601,6610,4,3,1,0,0,0,5,0,1,0,-1,2,32,0,0,-1,0x11d0,-1,-1,-1,0 
1,1,140,0,0,6628,.FFMA,6601,6619,4,3,1,0,0,0,5,0,1,0,-1,2,32,0,0,-1,0x11e0,-1,-1,-1,0 
1,1,141,0,0,6629,.IMAD.MOV.U32,6619,6620,4,2,1,0,0,0,6,0,3,0,-1,2,32,0,0,-1,0x11f0,-1,-1,-1,0 
1,1,142,0,0,6629,.RET.REL.NODEC,6619,6621,4,0,1,0,0,0,100,0,7,0,-1,4,32,0,0,-1,0x1200,-1,-1,-1,0 
1,1,143,0,0,6630,.BSYNC,6621,6622,4,0,0,0,0,0,100,0,7,0,-1,4,32,0,0,-1,0x930,-1,-1,-1,0 
1,1,144,0,0,6632,.FADD,6621,6623,4,2,1,0,0,0,5,0,1,0,-1,2,32,0,0,-1,0x940,-1,-1,-1,0 
1,1,145,0,0,6632,.BMOV.32.CLEAR,6623,6624,4,0,1,0,0,0,100,0,7,0,-1,4,32,0,0,-1,0x950,-1,-1,-1,0 
1,1,146,0,0,6633,.BSSY,6623,6625,4,0,0,0,0,0,100,0,7,0,-1,4,32,0,0,-1,0x960,-1,-1,-1,0 
1,1,148,0,0,6641,.MOV,6625,6633,4,0,1,0,0,0,1,0,3,0,-1,2,32,0,0,-1,0x980,-1,-1,-1,0 
1,1,147,0,0,6642,.IMAD.MOV.U32,6625,6632,4,3,1,0,0,0,6,0,3,0,-1,2,32,0,0,-1,0x970,-1,-1,-1,0 
1,1,149,0,0,6643,.FADD,6633,6634,4,2,1,0,0,0,5,0,1,0,-1,2,32,0,0,-1,0x990,-1,-1,-1,0 
1,1,150,0,0,6644,.IMAD.MOV.U32,6633,6635,4,3,1,0,0,0,6,0,3,0,-1,2,32,0,0,-1,0x9a0,-1,-1,-1,0 
1,1,151,0,0,6652,.FADD,6635,6643,4,2,1,0,0,0,5,0,1,0,-1,2,32,0,0,-1,0x9b0,-1,-1,-1,0 
1,1,152,0,0,6652,.CALL.REL.NOINC,6635,6644,4,0,0,0,0,0,100,0,7,0,-1,4,32,0,0,-1,0x9c0,-1,-1,-1,0 
1,1,153,0,0,6655,.SHFL.IDX,6644,6645,4,4,0,0,0,0,1,0,3,0,-1,2,0,0,0,-1,0x1130,-1,-1,-1,0 
1,1,154,0,0,6661,.FCHK,6644,6652,4,2,0,0,0,0,5,0,1,0,-1,2,32,0,0,-1,0x1140,-1,-1,-1,0 
1,1,155,0,0,6661,.BRA,6652,6653,4,0,0,0,0,0,100,0,7,0,-1,4,0,0,0,-1,0x1150,-1,-1,-1,0 
1,1,157,0,0,6664,.FADD.FTZ,6654,6655,4,2,1,0,0,0,5,0,1,0,-1,2,32,0,0,-1,0x1170,-1,-1,-1,0 
1,1,156,0,0,6679,.MUFU.RCP,6652,6654,20,1,1,0,0,0,2,0,4,0,-1,8,32,0,0,-1,0x1160,-1,-1,-1,0 
1,1,158,0,0,6688,.FFMA,6654,6679,4,2,1,0,0,0,5,0,1,0,-1,2,32,0,0,-1,0x1180,-1,-1,-1,0 
1,1,159,0,0,6697,.FFMA,6679,6688,4,3,1,0,0,0,5,0,1,0,-1,2,32,0,0,-1,0x1190,-1,-1,-1,0 
1,1,160,0,0,6706,.FFMA,6679,6697,4,3,1,0,0,0,5,0,1,0,-1,2,32,0,0,-1,0x11a0,-1,-1,-1,0 
1,1,161,0,0,6715,.FFMA,6697,6706,4,3,1,0,0,0,5,0,1,0,-1,2,32,0,0,-1,0x11b0,-1,-1,-1,0 
1,1,162,0,0,6724,.FFMA,6697,6715,4,3,1,0,0,0,5,0,1,0,-1,2,32,0,0,-1,0x11c0,-1,-1,-1,0 
1,1,163,0,0,6733,.FFMA,6715,6724,4,3,1,0,0,0,5,0,1,0,-1,2,32,0,0,-1,0x11d0,-1,-1,-1,0 
1,1,164,0,0,6742,.FFMA,6715,6733,4,3,1,0,0,0,5,0,1,0,-1,2,32,0,0,-1,0x11e0,-1,-1,-1,0 
1,1,165,0,0,6743,.IMAD.MOV.U32,6733,6734,4,2,1,0,0,0,6,0,3,0,-1,2,32,0,0,-1,0x11f0,-1,-1,-1,0 
1,1,166,0,0,6743,.RET.REL.NODEC,6733,6735,4,0,1,0,0,0,100,0,7,0,-1,4,32,0,0,-1,0x1200,-1,-1,-1,0 
1,1,167,0,0,6744,.BSYNC,6735,6736,4,0,0,0,0,0,100,0,7,0,-1,4,32,0,0,-1,0x9d0,-1,-1,-1,0 
1,1,168,0,0,6751,.FMUL,6735,6742,4,2,1,0,0,0,5,0,1,0,-1,2,32,0,0,-1,0x9e0,-1,-1,-1,0 
1,1,169,0,0,6752,.F2F.F64.F32,6742,6743,4,1,1,0,0,0,1,0,3,0,-1,2,32,0,0,-1,0x9f0,-1,-1,-1,0 
1,1,170,0,0,6753,.F2F.F64.F32,6742,6744,4,1,1,0,0,0,1,0,3,0,-1,2,32,0,0,-1,0xa00,-1,-1,-1,0 
1,1,171,0,0,6754,.IMAD.MOV.U32,6744,6745,4,2,1,0,0,0,6,0,3,0,-1,2,32,0,0,-1,0xa10,-1,-1,-1,0 
1,1,172,0,0,6754,.BMOV.32.CLEAR,6744,6746,4,0,1,0,0,0,100,0,7,0,-1,4,32,0,0,-1,0xa20,-1,-1,-1,0 
1,1,173,0,0,6763,.IMAD.MOV.U32,6746,6754,4,2,1,0,0,0,6,0,3,0,-1,2,32,0,0,-1,0xa30,-1,-1,-1,0 
1,1,174,0,0,6764,.F2F.F64.F32,6746,6755,4,1,1,0,0,0,1,0,3,0,-1,2,32,0,0,-1,0xa40,-1,-1,-1,0 
1,1,175,0,0,6764,.BSSY,6755,6756,4,0,0,0,0,0,100,0,7,0,-1,4,32,0,0,-1,0xa50,-1,-1,-1,0 
1,1,176,0,0,6770,.DFMA,6755,6757,8,2,1,0,0,0,4,0,2,0,-1,4,32,0,0,-1,0xa60,-1,-1,-1,0 
1,1,177,0,0,6777,.DMUL,6757,6764,8,1,1,0,0,0,4,0,2,0,-1,4,32,0,0,-1,0xa70,-1,-1,-1,0 
1,1,178,0,0,6779,.F2F.F32.F64,6757,6770,4,1,1,0,0,0,1,0,3,0,-1,2,32,0,0,-1,0xa80,-1,-1,-1,0 
1,1,180,0,0,6786,.MOV,6770,6778,4,0,1,0,0,0,1,0,3,0,-1,2,32,0,0,-1,0xaa0,-1,-1,-1,0 
1,1,179,0,0,6790,.DFMA,6770,6777,8,2,1,0,0,0,4,0,2,0,-1,4,32,0,0,-1,0xa90,-1,-1,-1,0 
1,1,181,0,0,6799,.F2F.F32.F64,6778,6790,4,1,1,0,0,0,1,0,3,0,-1,2,32,0,0,-1,0xab0,-1,-1,-1,0 
1,1,182,0,0,6800,.FMUL,6778,6791,4,2,1,0,0,0,5,0,1,0,-1,2,32,0,0,-1,0xac0,-1,-1,-1,0 
1,1,183,0,0,6800,.CALL.REL.NOINC,6791,6792,4,0,0,0,0,0,100,0,7,0,-1,4,32,0,0,-1,0xad0,-1,-1,-1,0 
1,1,184,0,0,6803,.SHFL.IDX,6791,6793,4,4,0,0,0,0,1,0,3,0,-1,2,0,0,0,-1,0x1130,-1,-1,-1,0 
1,1,185,0,0,6809,.FCHK,6793,6800,4,2,0,0,0,0,5,0,1,0,-1,2,32,0,0,-1,0x1140,-1,-1,-1,0 
1,1,186,0,0,6809,.BRA,6793,6801,4,0,0,0,0,0,100,0,7,0,-1,4,0,0,0,-1,0x1150,-1,-1,-1,0 
1,1,188,0,0,6812,.FADD.FTZ,6801,6803,4,2,1,0,0,0,5,0,1,0,-1,2,32,0,0,-1,0x1170,-1,-1,-1,0 
1,1,187,0,0,6827,.MUFU.RCP,6801,6802,20,1,1,0,0,0,2,0,4,0,-1,8,32,0,0,-1,0x1160,-1,-1,-1,0 
1,1,189,0,0,6836,.FFMA,6803,6827,4,2,1,0,0,0,5,0,1,0,-1,2,32,0,0,-1,0x1180,-1,-1,-1,0 
1,1,190,0,0,6845,.FFMA,6803,6836,4,3,1,0,0,0,5,0,1,0,-1,2,32,0,0,-1,0x1190,-1,-1,-1,0 
1,1,191,0,0,6854,.FFMA,6836,6845,4,3,1,0,0,0,5,0,1,0,-1,2,32,0,0,-1,0x11a0,-1,-1,-1,0 
1,1,192,0,0,6863,.FFMA,6836,6854,4,3,1,0,0,0,5,0,1,0,-1,2,32,0,0,-1,0x11b0,-1,-1,-1,0 
1,1,193,0,0,6872,.FFMA,6854,6863,4,3,1,0,0,0,5,0,1,0,-1,2,32,0,0,-1,0x11c0,-1,-1,-1,0 
1,1,194,0,0,6881,.FFMA,6854,6872,4,3,1,0,0,0,5,0,1,0,-1,2,32,0,0,-1,0x11d0,-1,-1,-1,0 
1,1,195,0,0,6890,.FFMA,6872,6881,4,3,1,0,0,0,5,0,1,0,-1,2,32,0,0,-1,0x11e0,-1,-1,-1,0 
1,1,196,0,0,6891,.IMAD.MOV.U32,6872,6882,4,2,1,0,0,0,6,0,3,0,-1,2,32,0,0,-1,0x11f0,-1,-1,-1,0 
1,1,197,0,0,6891,.RET.REL.NODEC,6882,6883,4,0,1,0,0,0,100,0,7,0,-1,4,32,0,0,-1,0x1200,-1,-1,-1,0 
1,1,198,0,0,6892,.BSYNC,6882,6884,4,0,0,0,0,0,100,0,7,0,-1,4,32,0,0,-1,0xae0,-1,-1,-1,0 
1,1,199,0,0,6894,.IMAD.MOV.U32,6884,6885,4,2,1,0,0,0,6,0,3,0,-1,2,32,0,0,-1,0xaf0,-1,-1,-1,0 
1,1,200,0,0,6894,.BMOV.32.CLEAR,6884,6886,4,0,1,0,0,0,100,0,7,0,-1,4,32,0,0,-1,0xb00,-1,-1,-1,0 
1,1,201,0,0,6895,.BSSY,6886,6887,4,0,0,0,0,0,100,0,7,0,-1,4,32,0,0,-1,0xb10,-1,-1,-1,0 
1,1,202,0,0,6899,.FADD,6886,6890,4,1,1,0,0,0,5,0,1,0,-1,2,32,0,0,-1,0xb20,-1,-1,-1,0 
1,1,203,0,0,6899,.MOV,6890,6891,4,0,1,0,0,0,1,0,3,0,-1,2,32,0,0,-1,0xb30,-1,-1,-1,0 
1,1,204,0,0,6903,.FADD,6890,6894,4,1,1,0,0,0,5,0,1,0,-1,2,32,0,0,-1,0xb40,-1,-1,-1,0 
1,1,205,0,0,6912,.FMUL,6894,6903,4,1,1,0,0,0,5,0,1,0,-1,2,32,0,0,-1,0xb50,-1,-1,-1,0 
1,1,206,0,0,6912,.CALL.REL.NOINC,6894,6904,4,0,0,0,0,0,100,0,7,0,-1,4,32,0,0,-1,0xb60,-1,-1,-1,0 
1,1,207,0,0,6915,.SHFL.IDX,6904,6905,4,4,0,0,0,0,1,0,3,0,-1,2,0,0,0,-1,0x1130,-1,-1,-1,0 
1,1,208,0,0,6921,.FCHK,6904,6912,4,2,0,0,0,0,5,0,1,0,-1,2,32,0,0,-1,0x1140,-1,-1,-1,0 
1,1,209,0,0,6921,.BRA,6912,6913,4,0,0,0,0,0,100,0,7,0,-1,4,0,0,0,-1,0x1150,-1,-1,-1,0 
1,1,211,0,0,6924,.FADD.FTZ,6914,6915,4,2,1,0,0,0,5,0,1,0,-1,2,32,0,0,-1,0x1170,-1,-1,-1,0 
1,1,210,0,0,6939,.MUFU.RCP,6912,6914,20,1,1,0,0,0,2,0,4,0,-1,8,32,0,0,-1,0x1160,-1,-1,-1,0 
1,1,212,0,0,6948,.FFMA,6914,6939,4,2,1,0,0,0,5,0,1,0,-1,2,32,0,0,-1,0x1180,-1,-1,-1,0 
1,1,213,0,0,6957,.FFMA,6939,6948,4,3,1,0,0,0,5,0,1,0,-1,2,32,0,0,-1,0x1190,-1,-1,-1,0 
1,1,214,0,0,6966,.FFMA,6939,6957,4,3,1,0,0,0,5,0,1,0,-1,2,32,0,0,-1,0x11a0,-1,-1,-1,0 
1,1,215,0,0,6975,.FFMA,6957,6966,4,3,1,0,0,0,5,0,1,0,-1,2,32,0,0,-1,0x11b0,-1,-1,-1,0 
1,1,216,0,0,6984,.FFMA,6957,6975,4,3,1,0,0,0,5,0,1,0,-1,2,32,0,0,-1,0x11c0,-1,-1,-1,0 
1,1,217,0,0,6993,.FFMA,6975,6984,4,3,1,0,0,0,5,0,1,0,-1,2,32,0,0,-1,0x11d0,-1,-1,-1,0 
1,1,218,0,0,7002,.FFMA,6975,6993,4,3,1,0,0,0,5,0,1,0,-1,2,32,0,0,-1,0x11e0,-1,-1,-1,0 
1,1,219,0,0,7003,.IMAD.MOV.U32,6993,6994,4,2,1,0,0,0,6,0,3,0,-1,2,32,0,0,-1,0x11f0,-1,-1,-1,0 
1,1,220,0,0,7003,.RET.REL.NODEC,6993,6995,4,0,1,0,0,0,100,0,7,0,-1,4,32,0,0,-1,0x1200,-1,-1,-1,0 
1,1,221,0,0,7004,.BSYNC,6995,6996,4,0,0,0,0,0,100,0,7,0,-1,4,32,0,0,-1,0xb70,-1,-1,-1,0 
1,1,222,0,0,7011,.F2F.F64.F32,6995,7002,4,1,1,0,0,0,1,0,3,0,-1,2,32,0,0,-1,0xb80,-1,-1,-1,0 
1,1,223,0,0,7011,.BMOV.32.CLEAR,7002,7003,4,0,1,0,0,0,100,0,7,0,-1,4,32,0,0,-1,0xb90,-1,-1,-1,0 
1,1,224,0,0,7012,.BSSY,7002,7004,4,0,0,0,0,0,100,0,7,0,-1,4,32,0,0,-1,0xba0,-1,-1,-1,0 
1,1,227,0,0,7022,.IADD3,7012,7013,4,2,1,0,0,0,6,0,3,0,-1,2,32,0,0,-1,0xbd0,-1,-1,-1,0 
1,1,225,0,0,7024,.DADD,7004,7011,8,1,1,0,0,0,4,0,2,0,-1,4,32,0,0,-1,0xbb0,-1,-1,-1,0 
1,1,228,0,0,7031,.FSETP.GEU.AND,7012,7022,4,1,0,0,0,0,5,0,1,0,-1,2,32,0,0,-1,0xbe0,-1,-1,-1,0 
1,1,226,0,0,7037,.MUFU.RCP64H,7004,7012,20,1,1,0,0,0,2,0,4,0,-1,8,32,0,0,-1,0xbc0,-1,-1,-1,0 
1,1,229,0,0,7037,.DFMA,7022,7024,8,2,1,0,0,0,4,0,2,0,-1,4,32,0,0,-1,0xbf0,-1,-1,-1,0 
1,1,230,0,0,7051,.DFMA,7022,7037,8,3,1,0,0,0,4,0,2,0,-1,4,32,0,0,-1,0xc00,-1,-1,-1,0 
1,1,231,0,0,7064,.DFMA,7037,7051,8,3,1,0,0,0,4,0,2,0,-1,4,32,0,0,-1,0xc10,-1,-1,-1,0 
1,1,232,0,0,7077,.DFMA,7037,7064,8,2,1,0,0,0,4,0,2,0,-1,4,32,0,0,-1,0xc20,-1,-1,-1,0 
1,1,234,0,0,7086,.BRA,7064,7078,4,0,0,0,0,0,100,0,7,0,-1,4,32,0,0,-1,0xc40,-1,-1,-1,0 
1,1,235,0,0,7087,.BSYNC,7078,7079,4,0,0,0,0,0,100,0,7,0,-1,4,32,0,0,-1,0xc90,-1,-1,-1,0 
1,1,233,0,0,7090,.DFMA,7064,7077,8,3,1,0,0,0,4,0,2,0,-1,4,32,0,0,-1,0xc30,-1,-1,-1,0 
1,1,236,0,0,7099,.F2F.F32.F64,7078,7090,4,1,1,0,0,0,1,0,3,0,-1,2,32,0,0,-1,0xca0,-1,-1,-1,0 
1,1,237,0,0,7099,.BMOV.32.CLEAR,7090,7091,4,0,1,0,0,0,100,0,7,0,-1,4,32,0,0,-1,0xcb0,-1,-1,-1,0 
1,1,238,0,0,7100,.BSSY,7090,7092,4,0,0,0,0,0,100,0,7,0,-1,4,32,0,0,-1,0xcc0,-1,-1,-1,0 
1,1,243,0,0,7107,.STS,7102,7103,1,2,0,0,1,4,11,0,6,0,-1,1,26,0,0,-1,0xd10,-1,-1,-1,0 
1,1,239,0,0,7108,.FSETP.GEU.AND,7092,7099,4,2,0,0,0,0,5,0,1,0,-1,2,32,0,0,-1,0xcd0,-1,-1,-1,0 
1,1,240,0,0,7108,.BRA,7092,7100,4,0,0,0,0,0,100,0,7,0,-1,4,0,0,0,-1,0xce0,-1,-1,-1,0 
1,1,241,0,0,7110,.FSETP.GT.AND,7100,7101,4,1,0,0,0,0,5,0,1,0,-1,2,32,0,0,-1,0xcf0,-1,-1,-1,0 
1,1,242,0,0,7110,.MOV,7100,7102,4,0,1,0,0,0,1,0,3,0,-1,2,6,0,0,-1,0xd00,-1,-1,-1,0 
1,1,244,0,0,7114,.STS,7102,7110,1,2,0,0,1,4,11,0,6,0,-1,1,6,0,0,-1,0xd20,-1,-1,-1,0 
1,1,245,0,0,7119,.BRA,7110,7111,4,0,0,0,0,0,100,0,7,0,-1,4,32,0,0,-1,0xd30,-1,-1,-1,0 
1,1,248,0,0,7119,.BAR.SYNC,7112,7114,1,0,0,0,0,0,13,0,3,0,-1,1,32,0,0,-1,0xd70,1,-1,-1,0 
1,1,246,0,0,7120,.BSYNC,7110,7112,4,0,0,0,0,0,100,0,7,0,-1,4,32,0,0,-1,0xd50,-1,-1,-1,0 
1,1,247,0,0,7121,.NOP,7112,7113,4,0,0,0,0,0,1,0,3,0,-1,2,32,0,0,-1,0xd60,-1,-1,-1,0 
1,1,250,0,0,7125,.IMAD.MOV.U32,7114,7116,4,2,1,0,0,0,6,0,3,0,-1,2,32,0,0,-1,0xd90,-1,-1,-1,0 
1,1,251,0,0,7134,.IMAD.WIDE,7116,7125,4,2,1,0,0,0,6,0,3,0,-1,2,32,0,0,-1,0xda0,-1,-1,-1,0 
1,1,252,0,0,7135,.IMAD.WIDE,7116,7126,4,2,1,0,0,0,6,0,3,0,-1,2,32,0,0,-1,0xdb0,-1,-1,-1,0 
1,1,253,0,0,7136,.IMAD.WIDE,7126,7127,4,2,1,0,0,0,6,0,3,0,-1,2,32,0,0,-1,0xdc0,-1,-1,-1,0 
1,1,254,0,0,7137,.IMAD.WIDE,7126,7128,4,2,1,0,0,0,6,0,3,0,-1,2,32,0,0,-1,0xdd0,-1,-1,-1,0 
1,1,255,0,0,7138,.IMAD.WIDE,7128,7129,4,2,1,0,0,0,6,0,3,0,-1,2,32,0,0,-1,0xde0,-1,-1,-1,0 
1,1,249,0,0,7139,.LDS.U,7114,7115,1,1,1,1,0,4,8,0,6,0,-1,1,32,0,0,-1,0xd80,-1,-1,-1,0 
1,1,256,0,0,7145,.STG.E.SYS,7128,7139,1,2,0,0,1,4,11,0,6,0,-1,1,32,0,0,-1,0xdf0,-1,-1,-1,1 
1,1,261,0,0,7149,.EXIT,7143,7144,1,0,0,0,0,0,17,0,3,0,-1,1,32,0,0,-1,0xe40,-1,-1,-1,0 
1,1,257,0,0,7149,.STG.E.SYS,7139,7140,1,2,0,0,1,4,11,0,6,0,-1,1,32,0,0,-1,0xe00,-1,-1,-1,1 
1,1,258,0,0,7153,.STG.E.SYS,7139,7141,1,2,0,0,1,4,11,0,6,0,-1,1,32,0,0,-1,0xe10,-1,-1,-1,1 
1,1,259,0,0,7157,.STG.E.SYS,7141,7142,1,2,0,0,1,4,11,0,6,0,-1,1,32,0,0,-1,0xe20,-1,-1,-1,1 
1,1,260,0,0,7161,.STG.E.SYS,7141,7143,1,2,0,0,1,4,11,0,6,0,-1,1,32,0,0,-1,0xe30,-1,-1,-1,1 
Destroy streams for kernel 1: size 0


gpgpu_simulation_time = 0 days, 0 hrs, 0 min, 1 sec (1 sec)
gpgpu_simulation_rate = 7135 (inst/sec)
gpgpu_simulation_rate = 7349 (cycle/sec)
gpgpu_silicon_slowdown = 154034x
-kernel name = _Z11srad_cuda_2PfS_S_S_S_S_iiff
-kernel id = 2
-grid dim = (8,8,1)
-block dim = (16,16,1)
-shmem = 5120
-nregs = 26
-binary version = 70
-cuda stream id = 0
-shmem base_addr = 0x00007fc75b000000
-local mem base_addr = 0x00007fc75d000000
-nvbit version = 1.4
-accelsim tracer version = 3
launching kernel command : /scratch/santosh/gpu_simulation/accel-sim-framework/traces/rodinia_2.0-ft/11.0/srad_v2-rodinia-2.0-ft/__data_matrix128x128_txt_0_127_0_127__5_2___data_result_matrix128x128_1_150_1_100__5_2_txt/traces/kernel-2.traceg
GPGPU-Sim uArch: Shader 0 bind to kernel 2 '_Z11srad_cuda_2PfS_S_S_S_S_iiff'
GPGPU-Sim: Reconfigure L1 cache to 120KB
GPGPUsim: cta_size: 32
ctaid: 0, start warp: 0, end_warp: 1, start_thread: 0, end_thread: 32
thread block = 0,0,0
warp id: 0
warp id: 1
warp_id: 0, insts: 96
1,2,262,0,0,12359,.MOV,12350,12351,4,0,1,0,0,0,1,0,3,0,-1,2,32,0,0,-1,0,-1,-1,-1,0 
1,2,264,0,0,12361,.S2R,12352,12353,4,0,1,0,0,0,1,0,3,0,-1,2,32,0,0,-1,0x20,-1,-1,-1,0 
1,2,263,0,0,12362,.SHFL.IDX,12350,12352,4,4,0,0,0,0,1,0,3,0,-1,2,0,0,0,-1,0x10,-1,-1,-1,0 
1,2,265,0,0,12363,.IMAD.MOV.U32,12352,12354,4,2,1,0,0,0,6,0,3,0,-1,2,32,0,0,-1,0x30,-1,-1,-1,0 
1,2,266,0,0,12363,.MOV,12354,12355,4,0,1,0,0,0,1,0,3,0,-1,2,32,0,0,-1,0x40,-1,-1,-1,0 
1,2,267,0,0,12364,.S2R,12354,12356,4,0,1,0,0,0,1,0,3,0,-1,2,32,0,0,-1,0x50,-1,-1,-1,0 
1,2,268,0,0,12372,.SHF.L.U32,12356,12363,4,2,1,0,0,0,6,0,3,0,-1,2,32,0,0,-1,0x60,-1,-1,-1,0 
1,2,269,0,0,12372,.S2R,12356,12364,4,0,1,0,0,0,1,0,3,0,-1,2,32,0,0,-1,0x70,-1,-1,-1,0 
1,2,270,0,0,12373,.S2R,12364,12365,4,0,1,0,0,0,1,0,3,0,-1,2,32,0,0,-1,0x80,-1,-1,-1,0 
1,2,271,0,0,12382,.IMAD,12364,12372,4,3,1,0,0,0,6,0,3,0,-1,2,32,0,0,-1,0x90,-1,-1,-1,0 
1,2,272,0,0,12391,.IMAD,12372,12382,4,2,1,0,0,0,6,0,3,0,-1,2,32,0,0,-1,0xa0,-1,-1,-1,0 
1,2,273,0,0,12400,.IMAD,12372,12391,4,2,1,0,0,0,6,0,3,0,-1,2,32,0,0,-1,0xb0,-1,-1,-1,0 
1,2,274,0,0,12409,.IMAD.IADD,12391,12400,4,2,1,0,0,0,6,0,3,0,-1,2,32,0,0,-1,0xc0,-1,-1,-1,0 
1,2,275,0,0,12418,.IMAD.WIDE,12391,12409,4,2,1,0,0,0,6,0,3,0,-1,2,32,0,0,-1,0xd0,-1,-1,-1,0 
1,2,277,0,0,12428,.IADD3,12409,12419,4,3,1,0,0,0,6,0,3,0,-1,2,32,0,0,-1,0xf0,-1,-1,-1,0 
1,2,278,0,0,12429,.SHF.L.U32,12419,12420,4,2,1,0,0,0,6,0,3,0,-1,2,32,0,0,-1,0x100,-1,-1,-1,0 
1,2,279,0,0,12437,.IMAD.WIDE,12419,12428,4,2,1,0,0,0,6,0,3,0,-1,2,32,0,0,-1,0x110,-1,-1,-1,0 
1,2,280,0,0,12438,.LEA,12428,12429,4,2,1,0,0,0,6,0,3,0,-1,2,32,0,0,-1,0x120,-1,-1,-1,0 
1,2,281,0,0,12439,.IMAD.MOV.U32,12428,12430,4,2,1,0,0,0,6,0,3,0,-1,2,32,0,0,-1,0x130,-1,-1,-1,0 
1,2,282,0,0,12448,.IADD3,12430,12439,4,2,1,0,0,0,6,0,3,0,-1,2,32,0,0,-1,0x140,-1,-1,-1,0 
1,2,283,0,0,12457,.ISETP.NE.AND,12430,12448,4,2,0,0,0,0,6,0,3,0,-1,2,32,0,0,-1,0x150,-1,-1,-1,0 
1,2,276,0,0,12613,.LDG.E.SYS,12409,12418,1,1,1,1,0,4,8,0,6,0,-1,1,32,0,0,-1,0xe0,-1,-1,-1,1 
1,2,284,0,0,12616,.STS,12448,12613,1,2,0,0,1,4,11,0,6,0,-1,1,32,0,0,-1,0x160,-1,-1,-1,0 
1,2,286,0,0,12620,.BAR.SYNC,12614,12615,1,0,0,0,0,0,13,0,3,0,-1,1,32,0,0,-1,0x180,1,-1,-1,0 
1,2,285,0,0,12622,.NOP,12448,12614,4,0,0,0,0,0,1,0,3,0,-1,2,32,0,0,-1,0x170,-1,-1,-1,0 
1,2,288,0,0,12626,.IMAD,12616,12617,4,2,1,0,0,0,6,0,3,0,-1,2,0,0,0,-1,0x1a0,-1,-1,-1,0 
1,2,289,0,0,12635,.IADD3,12616,12626,4,3,1,0,0,0,6,0,3,0,-1,2,0,0,0,-1,0x1b0,-1,-1,-1,0 
1,2,290,0,0,12644,.IMAD.WIDE.U32,12626,12635,4,2,1,0,0,0,6,0,3,0,-1,2,0,0,0,-1,0x1c0,-1,-1,-1,0 
1,2,287,0,0,12949,.LDG.E.SYS,12614,12616,1,1,1,1,0,4,8,0,6,0,-1,1,32,0,0,-1,0x190,-1,-1,-1,1 
1,2,291,0,0,12952,.LDG.E.SYS,12626,12949,1,1,1,1,0,4,8,0,6,0,-1,1,0,0,0,-1,0x1d0,-1,-1,-1,1 
1,2,292,0,0,12959,.IMAD.WIDE,12949,12950,4,2,1,0,0,0,6,0,3,0,-1,2,32,0,0,-1,0x1e0,-1,-1,-1,0 
1,2,293,0,0,12959,.MOV,12949,12951,4,0,1,0,0,0,1,0,3,0,-1,2,32,0,0,-1,0x1f0,-1,-1,-1,0 
1,2,294,0,0,12968,.IADD3,12951,12959,4,2,1,0,0,0,6,0,3,0,-1,2,32,0,0,-1,0x200,-1,-1,-1,0 
1,2,297,0,0,12973,.STS,12968,12970,1,2,0,0,1,4,11,0,6,0,-1,1,32,0,0,-1,0x230,-1,-1,-1,0 
1,2,295,0,0,12977,.ISETP.NE.AND,12951,12968,4,2,0,0,0,0,6,0,3,0,-1,2,32,0,0,-1,0x210,-1,-1,-1,0 
1,2,299,0,0,12977,.BAR.SYNC,12970,12972,1,0,0,0,0,0,13,0,3,0,-1,1,32,0,0,-1,0x250,1,-1,-1,0 
1,2,296,0,0,12978,.IMAD,12968,12969,4,2,1,0,0,0,6,0,3,0,-1,2,0,0,0,-1,0x220,-1,-1,-1,0 
1,2,298,0,0,12979,.NOP,12970,12971,4,0,0,0,0,0,1,0,3,0,-1,2,32,0,0,-1,0x240,-1,-1,-1,0 
1,2,301,0,0,12987,.IMAD,12972,12978,4,2,1,0,0,0,6,0,3,0,-1,2,0,0,0,-1,0x270,-1,-1,-1,0 
1,2,302,0,0,12996,.IADD3,12978,12987,4,2,1,0,0,0,6,0,3,0,-1,2,0,0,0,-1,0x280,-1,-1,-1,0 
1,2,303,0,0,13005,.IMAD.WIDE.U32,12978,12996,4,2,1,0,0,0,6,0,3,0,-1,2,0,0,0,-1,0x290,-1,-1,-1,0 
1,2,300,0,0,13304,.LDG.E.SYS,12972,12973,1,1,1,1,0,4,8,0,6,0,-1,1,32,0,0,-1,0x260,-1,-1,-1,1 
1,2,304,0,0,13307,.LDG.E.SYS,12996,13304,1,1,1,1,0,4,8,0,6,0,-1,1,0,0,0,-1,0x2a0,-1,-1,-1,1 
1,2,306,0,0,13310,.STS,13305,13307,1,2,0,0,1,4,11,0,6,0,-1,1,32,0,0,-1,0x2c0,-1,-1,-1,0 
1,2,305,0,0,13314,.IMAD.WIDE,12996,13305,4,2,1,0,0,0,6,0,3,0,-1,2,32,0,0,-1,0x2b0,-1,-1,-1,0 
1,2,308,0,0,13314,.BAR.SYNC,13308,13309,1,0,0,0,0,0,13,0,3,0,-1,1,32,0,0,-1,0x2e0,1,-1,-1,0 
1,2,307,0,0,13316,.NOP,13305,13308,4,0,0,0,0,0,1,0,3,0,-1,2,32,0,0,-1,0x2d0,-1,-1,-1,0 
1,2,310,0,0,13324,.ISETP.EQ.AND,13314,13315,4,1,0,0,0,0,6,0,3,0,-1,2,32,0,0,-1,0x300,-1,-1,-1,0 
1,2,311,0,0,13324,.BMOV.32.CLEAR,13314,13316,4,0,1,0,0,0,100,0,7,0,-1,4,32,0,0,-1,0x310,-1,-1,-1,0 
1,2,312,0,0,13326,.ISETP.NE.AND,13316,13317,4,1,0,0,0,0,6,0,3,0,-1,2,32,0,0,-1,0x320,-1,-1,-1,0 
1,2,313,0,0,13326,.BSSY,13316,13318,4,0,0,0,0,0,100,0,7,0,-1,4,32,0,0,-1,0x330,-1,-1,-1,0 
1,2,314,0,0,13328,.ISETP.NE.AND,13318,13319,4,1,0,0,0,0,6,0,3,0,-1,2,32,0,0,-1,0x340,-1,-1,-1,0 
1,2,315,0,0,13328,.MOV,13318,13320,4,0,1,0,0,0,1,0,3,0,-1,2,32,0,0,-1,0x350,-1,-1,-1,0 
1,2,316,0,0,13329,.MOV,13320,13321,4,0,1,0,0,0,1,0,3,0,-1,2,32,0,0,-1,0x360,-1,-1,-1,0 
1,2,309,0,0,13509,.LDG.E.SYS,13308,13314,1,1,1,1,0,4,8,0,6,0,-1,1,32,0,0,-1,0x2f0,-1,-1,-1,1 
1,2,317,0,0,13512,.STS,13320,13509,1,2,0,0,1,4,11,0,6,0,-1,1,32,0,0,-1,0x370,-1,-1,-1,0 
1,2,319,0,0,13516,.BAR.SYNC,13509,13511,1,0,0,0,0,0,13,0,3,0,-1,1,32,0,0,-1,0x390,1,-1,-1,0 
1,2,318,0,0,13518,.NOP,13509,13510,4,0,0,0,0,0,1,0,3,0,-1,2,32,0,0,-1,0x380,-1,-1,-1,0 
1,2,321,0,0,13521,.BRA,13511,13513,4,0,0,0,0,0,100,0,7,0,-1,4,2,0,0,-1,0x3b0,-1,-1,-1,0 
1,2,322,0,0,13522,.BRA,13513,13514,4,0,0,0,0,0,100,0,7,0,-1,4,2,0,0,-1,0x3c0,-1,-1,-1,0 
1,2,323,0,0,13524,.IADD3,13513,13515,4,2,1,0,0,0,6,0,3,0,-1,2,2,0,0,-1,0x410,-1,-1,-1,0 
1,2,324,0,0,13525,.IADD3,13515,13516,4,2,1,0,0,0,6,0,3,0,-1,2,2,0,0,-1,0x420,-1,-1,-1,0 
1,2,325,0,0,13525,.BSYNC,13515,13517,4,0,0,0,0,0,100,0,7,0,-1,4,2,0,0,-1,0x430,-1,-1,-1,0 
1,2,326,0,0,13533,.IADD3,13517,13524,4,2,1,0,0,0,6,0,3,0,-1,2,30,0,0,-1,0x3d0,-1,-1,-1,0 
1,2,327,0,0,13534,.IADD3,13517,13525,4,2,1,0,0,0,6,0,3,0,-1,2,30,0,0,-1,0x3e0,-1,-1,-1,0 
1,2,320,0,0,13536,.LDS.U,13511,13512,1,1,1,1,0,4,8,0,6,0,-1,1,32,0,0,-1,0x3a0,-1,-1,-1,0 
1,2,328,0,0,13542,.LEA,13525,13533,4,1,1,0,0,0,6,0,3,0,-1,2,0,0,0,-1,0x3f0,-1,-1,-1,0 
1,2,329,0,0,13542,.BRA,13525,13534,4,0,0,0,0,0,100,0,7,0,-1,4,30,0,0,-1,0x400,-1,-1,-1,0 
1,2,330,0,0,13543,.BSYNC,13534,13535,4,0,0,0,0,0,100,0,7,0,-1,4,30,0,0,-1,0x430,-1,-1,-1,0 
1,2,331,0,0,13545,.IMAD.WIDE,13534,13536,4,2,1,0,0,0,6,0,3,0,-1,2,32,0,0,-1,0x440,-1,-1,-1,0 
1,2,333,0,0,13552,.IMAD.WIDE,13536,13543,4,2,1,0,0,0,6,0,3,0,-1,2,32,0,0,-1,0x460,-1,-1,-1,0 
1,2,335,0,0,13554,.IMAD.WIDE,13543,13545,4,2,1,0,0,0,6,0,3,0,-1,2,32,0,0,-1,0x480,-1,-1,-1,0 
1,2,338,0,0,13557,.IMAD.WIDE,13547,13548,4,2,1,0,0,0,6,0,3,0,-1,2,32,0,0,-1,0x4b0,-1,-1,-1,0 
1,2,332,0,0,13566,.LDS.U,13536,13542,1,1,1,1,0,4,8,0,6,0,-1,1,32,0,0,-1,0x450,-1,-1,-1,0 
1,2,334,0,0,13569,.LDS.U,13543,13544,1,1,1,1,0,4,8,0,6,0,-1,1,32,0,0,-1,0x470,-1,-1,-1,0 
1,2,336,0,0,13570,.LDS.U,13545,13546,1,1,1,1,0,4,8,0,6,0,-1,1,32,0,0,-1,0x490,-1,-1,-1,0 
1,2,337,0,0,13742,.LDG.E.SYS,13545,13547,1,1,1,1,0,4,8,0,6,0,-1,1,32,0,0,-1,0x4a0,-1,-1,-1,1 
1,2,339,0,0,13747,.LDG.E.SYS,13547,13552,1,1,1,1,0,4,8,0,6,0,-1,1,32,0,0,-1,0x4c0,-1,-1,-1,1 
1,2,342,0,0,13751,.FMUL,13557,13742,4,2,1,0,0,0,5,0,1,0,-1,2,32,0,0,-1,0x4f0,-1,-1,-1,0 
1,2,343,0,0,13751,.F2F.F64.F32,13557,13743,4,0,1,0,0,0,1,0,3,0,-1,2,32,0,0,-1,0x500,-1,-1,-1,0 
1,2,340,0,0,13751,.LDG.E.SYS,13552,13554,1,1,1,1,0,4,8,0,6,0,-1,1,32,0,0,-1,0x4d0,-1,-1,-1,1 
1,2,341,0,0,13755,.LDG.E.SYS,13552,13557,1,1,1,1,0,4,8,0,6,0,-1,1,32,0,0,-1,0x4e0,-1,-1,-1,1 
1,2,344,0,0,13760,.FFMA,13743,13751,4,3,1,0,0,0,5,0,1,0,-1,2,32,0,0,-1,0x510,-1,-1,-1,0 
1,2,345,0,0,13761,.F2F.F64.F32,13743,13752,4,1,1,0,0,0,1,0,3,0,-1,2,32,0,0,-1,0x520,-1,-1,-1,0 
1,2,346,0,0,13769,.FFMA,13752,13760,4,3,1,0,0,0,5,0,1,0,-1,2,32,0,0,-1,0x530,-1,-1,-1,0 
1,2,347,0,0,13778,.FFMA,13752,13769,4,3,1,0,0,0,5,0,1,0,-1,2,32,0,0,-1,0x540,-1,-1,-1,0 
1,2,348,0,0,13787,.F2F.F64.F32,13769,13778,4,1,1,0,0,0,1,0,3,0,-1,2,32,0,0,-1,0x550,-1,-1,-1,0 
1,2,349,0,0,13792,.DMUL,13769,13779,8,1,1,0,0,0,4,0,2,0,-1,4,32,0,0,-1,0x560,-1,-1,-1,0 
1,2,350,0,0,13805,.DFMA,13779,13792,8,3,1,0,0,0,4,0,2,0,-1,4,32,0,0,-1,0x570,-1,-1,-1,0 
1,2,351,0,0,13814,.F2F.F32.F64,13779,13805,4,1,1,0,0,0,1,0,3,0,-1,2,32,0,0,-1,0x580,-1,-1,-1,0 
1,2,352,0,0,13817,.STS,13805,13814,1,2,0,0,1,4,11,0,6,0,-1,1,32,0,0,-1,0x590,-1,-1,-1,0 
1,2,354,0,0,13821,.BAR.SYNC,13815,13816,1,0,0,0,0,0,13,0,3,0,-1,1,32,0,0,-1,0x5b0,1,-1,-1,0 
1,2,353,0,0,13823,.NOP,13805,13815,4,0,0,0,0,0,1,0,3,0,-1,2,32,0,0,-1,0x5a0,-1,-1,-1,0 
1,2,355,0,0,13841,.LDS.U,13815,13817,1,1,1,1,0,4,8,0,6,0,-1,1,32,0,0,-1,0x5c0,-1,-1,-1,0 
1,2,357,0,0,13847,.EXIT,13817,13842,1,0,0,0,0,0,17,0,3,0,-1,1,32,0,0,-1,0x5e0,-1,-1,-1,0 
1,2,356,0,0,13847,.STG.E.SYS,13817,13841,1,2,0,0,1,4,11,0,6,0,-1,1,32,0,0,-1,0x5d0,-1,-1,-1,1 
Destroy streams for kernel 2: size 0


gpgpu_simulation_time = 0 days, 0 hrs, 0 min, 1 sec (1 sec)
gpgpu_simulation_rate = 9697 (inst/sec)
gpgpu_simulation_rate = 14035 (cycle/sec)
gpgpu_silicon_slowdown = 80655x
launching memcpy command : MemcpyHtoD,0x00007fc725760000,65536
-kernel name = _Z11srad_cuda_1PfS_S_S_S_S_iif
-kernel id = 3
-grid dim = (8,8,1)
-block dim = (16,16,1)
-shmem = 6144
-nregs = 22
-binary version = 70
-cuda stream id = 0
-shmem base_addr = 0x00007fc75b000000
-local mem base_addr = 0x00007fc75d000000
-nvbit version = 1.4
-accelsim tracer version = 3
launching kernel command : /scratch/santosh/gpu_simulation/accel-sim-framework/traces/rodinia_2.0-ft/11.0/srad_v2-rodinia-2.0-ft/__data_matrix128x128_txt_0_127_0_127__5_2___data_result_matrix128x128_1_150_1_100__5_2_txt/traces/kernel-3.traceg
GPGPU-Sim uArch: Shader 0 bind to kernel 3 '_Z11srad_cuda_1PfS_S_S_S_S_iif'
GPGPU-Sim: Reconfigure L1 cache to 120KB
GPGPUsim: cta_size: 32
ctaid: 0, start warp: 0, end_warp: 1, start_thread: 0, end_thread: 32
thread block = 0,0,0
warp id: 0
warp id: 1
warp_id: 0, insts: 261
1,3,358,0,0,19046,.IMAD.MOV.U32,19036,19037,4,2,1,0,0,0,6,0,3,0,-1,2,32,0,0,-1,0,-1,-1,-1,0 
1,3,360,0,0,19047,.S2R,19038,19039,4,0,1,0,0,0,1,0,3,0,-1,2,32,0,0,-1,0x20,-1,-1,-1,0 
1,3,359,0,0,19048,.SHFL.IDX,19036,19038,4,4,0,0,0,0,1,0,3,0,-1,2,0,0,0,-1,0x10,-1,-1,-1,0 
1,3,361,0,0,19049,.IMAD.MOV.U32,19038,19040,4,2,1,0,0,0,6,0,3,0,-1,2,32,0,0,-1,0x30,-1,-1,-1,0 
1,3,362,0,0,19050,.IMAD.MOV.U32,19040,19041,4,2,1,0,0,0,6,0,3,0,-1,2,32,0,0,-1,0x40,-1,-1,-1,0 
1,3,363,0,0,19050,.S2R,19040,19042,4,0,1,0,0,0,1,0,3,0,-1,2,32,0,0,-1,0x50,-1,-1,-1,0 
1,3,364,0,0,19058,.IMAD.SHL.U32,19042,19049,4,2,1,0,0,0,6,0,3,0,-1,2,32,0,0,-1,0x60,-1,-1,-1,0 
1,3,365,0,0,19058,.S2R,19042,19050,4,0,1,0,0,0,1,0,3,0,-1,2,32,0,0,-1,0x70,-1,-1,-1,0 
1,3,366,0,0,19067,.IMAD,19050,19058,4,3,1,0,0,0,6,0,3,0,-1,2,32,0,0,-1,0x80,-1,-1,-1,0 
1,3,367,0,0,19076,.IMAD,19050,19067,4,2,1,0,0,0,6,0,3,0,-1,2,32,0,0,-1,0x90,-1,-1,-1,0 
1,3,368,0,0,19085,.IADD3,19067,19076,4,2,1,0,0,0,6,0,3,0,-1,2,32,0,0,-1,0xa0,-1,-1,-1,0 
1,3,369,0,0,19086,.IADD3,19067,19077,4,3,1,0,0,0,6,0,3,0,-1,2,32,0,0,-1,0xb0,-1,-1,-1,0 
1,3,370,0,0,19094,.IMAD.WIDE,19077,19085,4,2,1,0,0,0,6,0,3,0,-1,2,32,0,0,-1,0xc0,-1,-1,-1,0 
1,3,371,0,0,19095,.IMAD.WIDE,19077,19086,4,2,1,0,0,0,6,0,3,0,-1,2,32,0,0,-1,0xd0,-1,-1,-1,0 
1,3,374,0,0,19105,.IMAD.SHL.U32,19095,19096,4,2,1,0,0,0,6,0,3,0,-1,2,32,0,0,-1,0x100,-1,-1,-1,0 
1,3,375,0,0,19106,.ISETP.NE.AND,19095,19097,4,2,0,0,0,0,6,0,3,0,-1,2,32,0,0,-1,0x110,-1,-1,-1,0 
1,3,376,0,0,19106,.S2R,19097,19098,4,0,1,0,0,0,1,0,3,0,-1,2,32,0,0,-1,0x120,-1,-1,-1,0 
1,3,377,0,0,19115,.IMAD,19097,19106,4,2,1,0,0,0,6,0,3,0,-1,2,32,0,0,-1,0x130,-1,-1,-1,0 
1,3,378,0,0,19116,.IMAD,19106,19107,4,2,1,0,0,0,6,0,3,0,-1,2,32,0,0,-1,0x140,-1,-1,-1,0 
1,3,379,0,0,19124,.IADD3,19106,19115,4,2,1,0,0,0,6,0,3,0,-1,2,32,0,0,-1,0x150,-1,-1,-1,0 
1,3,380,0,0,19125,.IMAD.IADD,19115,19116,4,2,1,0,0,0,6,0,3,0,-1,2,32,0,0,-1,0x160,-1,-1,-1,0 
1,3,373,0,0,19289,.LDG.E.SYS,19086,19095,1,1,1,1,0,4,8,0,6,0,-1,1,32,0,0,-1,0xf0,-1,-1,-1,1 
1,3,372,0,0,19426,.LDG.E.SYS,19086,19094,1,1,1,1,0,4,8,0,6,0,-1,1,32,0,0,-1,0xe0,-1,-1,-1,1 
1,3,381,0,0,19429,.STS,19115,19426,1,2,0,0,1,4,11,0,6,0,-1,1,32,0,0,-1,0x170,-1,-1,-1,0 
1,3,382,0,0,19430,.STS,19426,19427,1,2,0,0,1,4,11,0,6,0,-1,1,32,0,0,-1,0x180,-1,-1,-1,0 
1,3,383,0,0,19436,.BRA,19426,19428,4,0,0,0,0,0,100,0,7,0,-1,4,32,0,0,-1,0x190,-1,-1,-1,0 
1,3,384,0,0,19438,.IMAD,19428,19429,4,2,1,0,0,0,6,0,3,0,-1,2,32,0,0,-1,0x240,-1,-1,-1,0 
1,3,385,0,0,19447,.IMAD.WIDE,19428,19438,4,2,1,0,0,0,6,0,3,0,-1,2,32,0,0,-1,0x250,-1,-1,-1,0 
1,3,386,0,0,19640,.LDG.E.SYS,19438,19447,1,1,1,1,0,4,8,0,6,0,-1,1,32,0,0,-1,0x260,-1,-1,-1,1 
1,3,387,0,0,19643,.STS,19438,19640,1,2,0,0,1,4,11,0,6,0,-1,1,32,0,0,-1,0x270,-1,-1,-1,0 
1,3,390,0,0,19648,.BAR.SYNC,19642,19643,1,0,0,0,0,0,13,0,3,0,-1,1,32,0,0,-1,0x2a0,1,-1,-1,0 
1,3,388,0,0,19650,.IADD3,19640,19641,4,2,1,0,0,0,6,0,3,0,-1,2,32,0,0,-1,0x280,-1,-1,-1,0 
1,3,389,0,0,19650,.NOP,19640,19642,4,0,0,0,0,0,1,0,3,0,-1,2,32,0,0,-1,0x290,-1,-1,-1,0 
1,3,391,0,0,19659,.IMAD.WIDE,19642,19650,4,2,1,0,0,0,6,0,3,0,-1,2,32,0,0,-1,0x2b0,-1,-1,-1,0 
1,3,394,0,0,19670,.ISETP.NE.AND,19660,19661,4,2,0,0,0,0,6,0,3,0,-1,2,32,0,0,-1,0x2e0,-1,-1,-1,0 
1,3,395,0,0,19671,.LEA,19660,19662,4,1,1,0,0,0,6,0,3,0,-1,2,32,0,0,-1,0x2f0,-1,-1,-1,0 
1,3,396,0,0,19672,.IADD3,19662,19663,4,2,1,0,0,0,6,0,3,0,-1,2,32,0,0,-1,0x300,-1,-1,-1,0 
1,3,393,0,0,19854,.LDG.E.SYS,19650,19660,1,1,1,1,0,4,8,0,6,0,-1,1,32,0,0,-1,0x2d0,-1,-1,-1,1 
1,3,392,0,0,19990,.LDG.E.SYS,19650,19659,1,1,1,1,0,4,8,0,6,0,-1,1,32,0,0,-1,0x2c0,-1,-1,-1,1 
1,3,397,0,0,19993,.STS,19662,19990,1,2,0,0,1,4,11,0,6,0,-1,1,32,0,0,-1,0x310,-1,-1,-1,0 
1,3,398,0,0,19994,.STS,19990,19991,1,2,0,0,1,4,11,0,6,0,-1,1,32,0,0,-1,0x320,-1,-1,-1,0 
1,3,399,0,0,20000,.BRA,19990,19992,4,0,0,0,0,0,100,0,7,0,-1,4,32,0,0,-1,0x330,-1,-1,-1,0 
1,3,400,0,0,20002,.IMAD,19992,19993,4,2,1,0,0,0,6,0,3,0,-1,2,32,0,0,-1,0x3f0,-1,-1,-1,0 
1,3,401,0,0,20011,.IMAD.WIDE,19992,20002,4,2,1,0,0,0,6,0,3,0,-1,2,32,0,0,-1,0x400,-1,-1,-1,0 
1,3,402,0,0,20203,.LDG.E.SYS,20002,20011,1,1,1,1,0,4,8,0,6,0,-1,1,32,0,0,-1,0x410,-1,-1,-1,1 
1,3,403,0,0,20206,.STS,20002,20203,1,2,0,0,1,4,11,0,6,0,-1,1,32,0,0,-1,0x420,-1,-1,-1,0 
1,3,406,0,0,20211,.BAR.SYNC,20205,20206,1,0,0,0,0,0,13,0,3,0,-1,1,32,0,0,-1,0x450,1,-1,-1,0 
1,3,404,0,0,20213,.IMAD.WIDE,20203,20204,4,2,1,0,0,0,6,0,3,0,-1,2,32,0,0,-1,0x430,-1,-1,-1,0 
1,3,405,0,0,20213,.NOP,20203,20205,4,0,0,0,0,0,1,0,3,0,-1,2,32,0,0,-1,0x440,-1,-1,-1,0 
1,3,409,0,0,20223,.BMOV.32.CLEAR,20213,20215,4,0,1,0,0,0,100,0,7,0,-1,4,32,0,0,-1,0x480,-1,-1,-1,0 
1,3,408,0,0,20224,.LOP3.LUT,20213,20214,4,4,0,0,0,0,6,0,3,0,-1,2,32,0,0,-1,0x470,-1,-1,-1,0 
1,3,410,0,0,20224,.BSSY,20215,20216,4,0,0,0,0,0,100,0,7,0,-1,4,32,0,0,-1,0x490,-1,-1,-1,0 
1,3,407,0,0,20405,.LDG.E.SYS,20205,20213,1,1,1,1,0,4,8,0,6,0,-1,1,32,0,0,-1,0x460,-1,-1,-1,1 
1,3,411,0,0,20408,.STS,20215,20405,1,2,0,0,1,4,11,0,6,0,-1,1,32,0,0,-1,0x4a0,-1,-1,-1,0 
1,3,413,0,0,20412,.BAR.SYNC,20405,20407,1,0,0,0,0,0,13,0,3,0,-1,1,32,0,0,-1,0x4c0,1,-1,-1,0 
1,3,412,0,0,20414,.NOP,20405,20406,4,0,0,0,0,0,1,0,3,0,-1,2,32,0,0,-1,0x4b0,-1,-1,-1,0 
1,3,415,0,0,20417,.BRA,20407,20409,4,0,0,0,0,0,100,0,7,0,-1,4,1,0,0,-1,0x4e0,-1,-1,-1,0 
1,3,416,0,0,20419,.IADD3,20409,20410,4,2,1,0,0,0,6,0,3,0,-1,2,1,0,0,-1,0x7f0,-1,-1,-1,0 
1,3,417,0,0,20420,.IADD3,20409,20411,4,2,1,0,0,0,6,0,3,0,-1,2,1,0,0,-1,0x800,-1,-1,-1,0 
1,3,418,0,0,20420,.BSYNC,20411,20412,4,0,0,0,0,0,100,0,7,0,-1,4,1,0,0,-1,0x810,-1,-1,-1,0 
1,3,419,0,0,20422,.ISETP.NE.AND,20411,20413,4,1,0,0,0,0,6,0,3,0,-1,2,31,0,0,-1,0x4f0,-1,-1,-1,0 
1,3,420,0,0,20428,.IMAD.MOV.U32,20413,20419,4,2,1,0,0,0,6,0,3,0,-1,2,31,0,0,-1,0x500,-1,-1,-1,0 
1,3,421,0,0,20429,.ISETP.EQ.AND,20413,20420,4,2,0,0,0,0,6,0,3,0,-1,2,31,0,0,-1,0x510,-1,-1,-1,0 
1,3,422,0,0,20430,.IMAD.MOV.U32,20420,20421,4,2,1,0,0,0,6,0,3,0,-1,2,31,0,0,-1,0x520,-1,-1,-1,0 
1,3,423,0,0,20431,.ISETP.NE.AND,20420,20422,4,2,0,0,0,0,6,0,3,0,-1,2,31,0,0,-1,0x530,-1,-1,-1,0 
1,3,424,0,0,20432,.IMAD.MOV.U32,20422,20423,4,2,1,0,0,0,6,0,3,0,-1,2,31,0,0,-1,0x540,-1,-1,-1,0 
1,3,414,0,0,20432,.LDS.U,20407,20408,1,1,1,1,0,4,8,0,6,0,-1,1,32,0,0,-1,0x4d0,-1,-1,-1,0 
1,3,425,0,0,20433,.IMAD.MOV.U32,20422,20424,4,2,1,0,0,0,6,0,3,0,-1,2,31,0,0,-1,0x550,-1,-1,-1,0 
1,3,426,0,0,20433,.BRA,20424,20425,4,0,0,0,0,0,100,0,7,0,-1,4,2,0,0,-1,0x560,-1,-1,-1,0 
1,3,427,0,0,20434,.BSYNC,20424,20426,4,0,0,0,0,0,100,0,7,0,-1,4,1,0,0,-1,0x810,-1,-1,-1,0 
1,3,428,0,0,20436,.ISETP.EQ.AND,20426,20427,4,1,0,0,0,0,6,0,3,0,-1,2,30,0,0,-1,0x570,-1,-1,-1,0 
1,3,429,0,0,20437,.IMAD.MOV.U32,20426,20428,4,2,1,0,0,0,6,0,3,0,-1,2,30,0,0,-1,0x580,-1,-1,-1,0 
1,3,430,0,0,20438,.ISETP.NE.AND,20428,20429,4,1,0,0,0,0,6,0,3,0,-1,2,30,0,0,-1,0x590,-1,-1,-1,0 
1,3,431,0,0,20440,.IMAD.MOV.U32,20428,20430,4,2,1,0,0,0,6,0,3,0,-1,2,30,0,0,-1,0x5a0,-1,-1,-1,0 
1,3,432,0,0,20441,.IMAD.MOV.U32,20430,20432,4,2,1,0,0,0,6,0,3,0,-1,2,30,0,0,-1,0x5b0,-1,-1,-1,0 
1,3,433,0,0,20442,.IMAD.MOV.U32,20430,20433,4,2,1,0,0,0,6,0,3,0,-1,2,30,0,0,-1,0x5c0,-1,-1,-1,0 
1,3,434,0,0,20442,.BRA,20433,20434,4,0,0,0,0,0,100,0,7,0,-1,4,1,0,0,-1,0x5d0,-1,-1,-1,0 
1,3,435,0,0,20445,.ISETP.EQ.AND,20433,20435,4,2,0,0,0,0,6,0,3,0,-1,2,30,0,0,-1,0x5e0,-1,-1,-1,0 
1,3,436,0,0,20449,.IMAD.MOV.U32,20435,20440,4,2,1,0,0,0,6,0,3,0,-1,2,30,0,0,-1,0x5f0,-1,-1,-1,0 
1,3,437,0,0,20450,.ISETP.NE.AND,20435,20441,4,2,0,0,0,0,6,0,3,0,-1,2,30,0,0,-1,0x600,-1,-1,-1,0 
1,3,438,0,0,20451,.IMAD.MOV.U32,20441,20442,4,2,1,0,0,0,6,0,3,0,-1,2,30,0,0,-1,0x610,-1,-1,-1,0 
1,3,439,0,0,20451,.MOV,20441,20443,4,0,1,0,0,0,1,0,3,0,-1,2,30,0,0,-1,0x620,-1,-1,-1,0 
1,3,440,0,0,20453,.IMAD.MOV.U32,20443,20444,4,2,1,0,0,0,6,0,3,0,-1,2,30,0,0,-1,0x630,-1,-1,-1,0 
1,3,441,0,0,20453,.BRA,20443,20445,4,0,0,0,0,0,100,0,7,0,-1,4,0,0,0,-1,0x640,-1,-1,-1,0 
1,3,442,0,0,20462,.IADD3,20445,20453,4,2,1,0,0,0,6,0,3,0,-1,2,14,0,0,-1,0x650,-1,-1,-1,0 
1,3,443,0,0,20463,.IADD3,20445,20454,4,2,1,0,0,0,6,0,3,0,-1,2,14,0,0,-1,0x660,-1,-1,-1,0 
1,3,444,0,0,20464,.IADD3,20454,20455,4,2,1,0,0,0,6,0,3,0,-1,2,14,0,0,-1,0x670,-1,-1,-1,0 
1,3,445,0,0,20465,.IADD3,20454,20456,4,2,1,0,0,0,6,0,3,0,-1,2,14,0,0,-1,0x680,-1,-1,-1,0 
1,3,446,0,0,20465,.BRA,20456,20457,4,0,0,0,0,0,100,0,7,0,-1,4,14,0,0,-1,0x690,-1,-1,-1,0 
1,3,447,0,0,20466,.BSYNC,20456,20458,4,0,0,0,0,0,100,0,7,0,-1,4,14,0,0,-1,0x810,-1,-1,-1,0 
1,3,448,0,0,20467,.BMOV.32.CLEAR,20458,20459,4,0,1,0,0,0,100,0,7,0,-1,4,16,0,0,-1,0x6a0,-1,-1,-1,0 
1,3,449,0,0,20468,.BSSY,20458,20460,4,0,0,0,0,0,100,0,7,0,-1,4,16,0,0,-1,0x6b0,-1,-1,-1,0 
1,3,450,0,0,20469,.BRA,20460,20461,4,0,0,0,0,0,100,0,7,0,-1,4,1,0,0,-1,0x6c0,-1,-1,-1,0 
1,3,451,0,0,20476,.IADD3,20460,20467,4,2,1,0,0,0,6,0,3,0,-1,2,1,0,0,-1,0x790,-1,-1,-1,0 
1,3,452,0,0,20477,.IADD3,20467,20468,4,2,1,0,0,0,6,0,3,0,-1,2,1,0,0,-1,0x7a0,-1,-1,-1,0 
1,3,453,0,0,20478,.IADD3,20467,20469,4,2,1,0,0,0,6,0,3,0,-1,2,1,0,0,-1,0x7b0,-1,-1,-1,0 
1,3,454,0,0,20478,.BSYNC,20469,20470,4,0,0,0,0,0,100,0,7,0,-1,4,1,0,0,-1,0x7c0,-1,-1,-1,0 
1,3,455,0,0,20479,.BMOV.32.CLEAR,20469,20471,4,0,1,0,0,0,100,0,7,0,-1,4,15,0,0,-1,0x6d0,-1,-1,-1,0 
1,3,456,0,0,20480,.BSSY,20471,20472,4,0,0,0,0,0,100,0,7,0,-1,4,15,0,0,-1,0x6e0,-1,-1,-1,0 
1,3,457,0,0,20481,.BRA,20471,20473,4,0,0,0,0,0,100,0,7,0,-1,4,0,0,0,-1,0x6f0,-1,-1,-1,0 
1,3,458,0,0,20488,.IADD3,20473,20479,4,2,1,0,0,0,6,0,3,0,-1,2,14,0,0,-1,0x700,-1,-1,-1,0 
1,3,459,0,0,20497,.IMAD.MOV.U32,20473,20488,4,3,1,0,0,0,6,0,3,0,-1,2,1,0,0,-1,0x710,-1,-1,-1,0 
1,3,460,0,0,20498,.IADD3,20488,20489,4,2,1,0,0,0,6,0,3,0,-1,2,15,0,0,-1,0x720,-1,-1,-1,0 
1,3,461,0,0,20498,.BRA,20488,20490,4,0,0,0,0,0,100,0,7,0,-1,4,15,0,0,-1,0x730,-1,-1,-1,0 
1,3,462,0,0,20499,.BSYNC,20490,20491,4,0,0,0,0,0,100,0,7,0,-1,4,15,0,0,-1,0x760,-1,-1,-1,0 
1,3,463,0,0,20501,.IADD3,20490,20492,4,2,1,0,0,0,6,0,3,0,-1,2,15,0,0,-1,0x770,-1,-1,-1,0 
1,3,464,0,0,20501,.BRA,20492,20493,4,0,0,0,0,0,100,0,7,0,-1,4,15,0,0,-1,0x780,-1,-1,-1,0 
1,3,465,0,0,20502,.BSYNC,20492,20494,4,0,0,0,0,0,100,0,7,0,-1,4,15,0,0,-1,0x7c0,-1,-1,-1,0 
1,3,466,0,0,20504,.IADD3,20494,20495,4,2,1,0,0,0,6,0,3,0,-1,2,16,0,0,-1,0x7d0,-1,-1,-1,0 
1,3,467,0,0,20504,.BRA,20494,20496,4,0,0,0,0,0,100,0,7,0,-1,4,16,0,0,-1,0x7e0,-1,-1,-1,0 
1,3,468,0,0,20505,.BSYNC,20496,20497,4,0,0,0,0,0,100,0,7,0,-1,4,16,0,0,-1,0x810,-1,-1,-1,0 
1,3,470,0,0,20513,.BMOV.32.CLEAR,20504,20505,4,0,1,0,0,0,100,0,7,0,-1,4,32,0,0,-1,0x830,-1,-1,-1,0 
1,3,471,0,0,20514,.BSSY,20504,20506,4,0,0,0,0,0,100,0,7,0,-1,4,32,0,0,-1,0x840,-1,-1,-1,0 
1,3,472,0,0,20516,.FMUL,20506,20507,4,2,1,0,0,0,5,0,1,0,-1,2,32,0,0,-1,0x850,-1,-1,-1,0 
1,3,469,0,0,20529,.LDS.U,20496,20504,1,1,1,1,0,4,8,0,6,0,-1,1,32,0,0,-1,0x820,-1,-1,-1,0 
1,3,473,0,0,20532,.LDS.U,20506,20508,1,1,1,1,0,4,8,0,6,0,-1,1,32,0,0,-1,0x860,-1,-1,-1,0 
1,3,474,0,0,20534,.LDS.U,20508,20509,1,1,1,1,0,4,8,0,6,0,-1,1,32,0,0,-1,0x870,-1,-1,-1,0 
1,3,475,0,0,20536,.LDS.U,20508,20510,1,1,1,1,0,4,8,0,6,0,-1,1,32,0,0,-1,0x880,-1,-1,-1,0 
1,3,476,0,0,20538,.FADD,20510,20529,4,2,1,0,0,0,5,0,1,0,-1,2,32,0,0,-1,0x890,-1,-1,-1,0 
1,3,477,0,0,20541,.FADD,20510,20532,4,2,1,0,0,0,5,0,1,0,-1,2,32,0,0,-1,0x8a0,-1,-1,-1,0 
1,3,478,0,0,20547,.FMUL,20532,20538,4,2,1,0,0,0,5,0,1,0,-1,2,32,0,0,-1,0x8b0,-1,-1,-1,0 
1,3,479,0,0,20548,.FADD,20532,20539,4,2,1,0,0,0,5,0,1,0,-1,2,32,0,0,-1,0x8c0,-1,-1,-1,0 
1,3,480,0,0,20548,.MOV,20539,20540,4,0,1,0,0,0,1,0,3,0,-1,2,32,0,0,-1,0x8d0,-1,-1,-1,0 
1,3,481,0,0,20556,.FFMA,20539,20547,4,3,1,0,0,0,5,0,1,0,-1,2,32,0,0,-1,0x8e0,-1,-1,-1,0 
1,3,482,0,0,20557,.FADD,20547,20548,4,2,1,0,0,0,5,0,1,0,-1,2,32,0,0,-1,0x8f0,-1,-1,-1,0 
1,3,483,0,0,20565,.FFMA,20547,20556,4,3,1,0,0,0,5,0,1,0,-1,2,32,0,0,-1,0x900,-1,-1,-1,0 
1,3,484,0,0,20574,.FFMA,20556,20565,4,3,1,0,0,0,5,0,1,0,-1,2,32,0,0,-1,0x910,-1,-1,-1,0 
1,3,485,0,0,20574,.CALL.REL.NOINC,20556,20566,4,0,0,0,0,0,100,0,7,0,-1,4,32,0,0,-1,0x920,-1,-1,-1,0 
1,3,486,0,0,20577,.SHFL.IDX,20566,20567,4,4,0,0,0,0,1,0,3,0,-1,2,0,0,0,-1,0x1130,-1,-1,-1,0 
1,3,487,0,0,20583,.FCHK,20566,20574,4,2,0,0,0,0,5,0,1,0,-1,2,32,0,0,-1,0x1140,-1,-1,-1,0 
1,3,488,0,0,20583,.BRA,20574,20575,4,0,0,0,0,0,100,0,7,0,-1,4,0,0,0,-1,0x1150,-1,-1,-1,0 
1,3,490,0,0,20586,.FADD.FTZ,20576,20577,4,2,1,0,0,0,5,0,1,0,-1,2,32,0,0,-1,0x1170,-1,-1,-1,0 
1,3,489,0,0,20601,.MUFU.RCP,20574,20576,20,1,1,0,0,0,2,0,4,0,-1,8,32,0,0,-1,0x1160,-1,-1,-1,0 
1,3,491,0,0,20610,.FFMA,20576,20601,4,2,1,0,0,0,5,0,1,0,-1,2,32,0,0,-1,0x1180,-1,-1,-1,0 
1,3,492,0,0,20619,.FFMA,20601,20610,4,3,1,0,0,0,5,0,1,0,-1,2,32,0,0,-1,0x1190,-1,-1,-1,0 
1,3,493,0,0,20628,.FFMA,20601,20619,4,3,1,0,0,0,5,0,1,0,-1,2,32,0,0,-1,0x11a0,-1,-1,-1,0 
1,3,494,0,0,20637,.FFMA,20619,20628,4,3,1,0,0,0,5,0,1,0,-1,2,32,0,0,-1,0x11b0,-1,-1,-1,0 
1,3,495,0,0,20646,.FFMA,20619,20637,4,3,1,0,0,0,5,0,1,0,-1,2,32,0,0,-1,0x11c0,-1,-1,-1,0 
1,3,496,0,0,20655,.FFMA,20637,20646,4,3,1,0,0,0,5,0,1,0,-1,2,32,0,0,-1,0x11d0,-1,-1,-1,0 
1,3,497,0,0,20664,.FFMA,20637,20655,4,3,1,0,0,0,5,0,1,0,-1,2,32,0,0,-1,0x11e0,-1,-1,-1,0 
1,3,498,0,0,20665,.IMAD.MOV.U32,20655,20656,4,2,1,0,0,0,6,0,3,0,-1,2,32,0,0,-1,0x11f0,-1,-1,-1,0 
1,3,499,0,0,20665,.RET.REL.NODEC,20655,20657,4,0,1,0,0,0,100,0,7,0,-1,4,32,0,0,-1,0x1200,-1,-1,-1,0 
1,3,500,0,0,20666,.BSYNC,20657,20658,4,0,0,0,0,0,100,0,7,0,-1,4,32,0,0,-1,0x930,-1,-1,-1,0 
1,3,501,0,0,20668,.FADD,20657,20659,4,2,1,0,0,0,5,0,1,0,-1,2,32,0,0,-1,0x940,-1,-1,-1,0 
1,3,502,0,0,20668,.BMOV.32.CLEAR,20659,20660,4,0,1,0,0,0,100,0,7,0,-1,4,32,0,0,-1,0x950,-1,-1,-1,0 
1,3,503,0,0,20669,.BSSY,20659,20661,4,0,0,0,0,0,100,0,7,0,-1,4,32,0,0,-1,0x960,-1,-1,-1,0 
1,3,505,0,0,20677,.MOV,20661,20669,4,0,1,0,0,0,1,0,3,0,-1,2,32,0,0,-1,0x980,-1,-1,-1,0 
1,3,504,0,0,20678,.IMAD.MOV.U32,20661,20668,4,3,1,0,0,0,6,0,3,0,-1,2,32,0,0,-1,0x970,-1,-1,-1,0 
1,3,506,0,0,20679,.FADD,20669,20670,4,2,1,0,0,0,5,0,1,0,-1,2,32,0,0,-1,0x990,-1,-1,-1,0 
1,3,507,0,0,20680,.IMAD.MOV.U32,20669,20671,4,3,1,0,0,0,6,0,3,0,-1,2,32,0,0,-1,0x9a0,-1,-1,-1,0 
1,3,508,0,0,20688,.FADD,20671,20679,4,2,1,0,0,0,5,0,1,0,-1,2,32,0,0,-1,0x9b0,-1,-1,-1,0 
1,3,509,0,0,20688,.CALL.REL.NOINC,20671,20680,4,0,0,0,0,0,100,0,7,0,-1,4,32,0,0,-1,0x9c0,-1,-1,-1,0 
1,3,510,0,0,20691,.SHFL.IDX,20680,20681,4,4,0,0,0,0,1,0,3,0,-1,2,0,0,0,-1,0x1130,-1,-1,-1,0 
1,3,511,0,0,20697,.FCHK,20680,20688,4,2,0,0,0,0,5,0,1,0,-1,2,32,0,0,-1,0x1140,-1,-1,-1,0 
1,3,512,0,0,20697,.BRA,20688,20689,4,0,0,0,0,0,100,0,7,0,-1,4,0,0,0,-1,0x1150,-1,-1,-1,0 
1,3,514,0,0,20700,.FADD.FTZ,20690,20691,4,2,1,0,0,0,5,0,1,0,-1,2,32,0,0,-1,0x1170,-1,-1,-1,0 
1,3,513,0,0,20715,.MUFU.RCP,20688,20690,20,1,1,0,0,0,2,0,4,0,-1,8,32,0,0,-1,0x1160,-1,-1,-1,0 
1,3,515,0,0,20724,.FFMA,20690,20715,4,2,1,0,0,0,5,0,1,0,-1,2,32,0,0,-1,0x1180,-1,-1,-1,0 
1,3,516,0,0,20733,.FFMA,20715,20724,4,3,1,0,0,0,5,0,1,0,-1,2,32,0,0,-1,0x1190,-1,-1,-1,0 
1,3,517,0,0,20742,.FFMA,20715,20733,4,3,1,0,0,0,5,0,1,0,-1,2,32,0,0,-1,0x11a0,-1,-1,-1,0 
1,3,518,0,0,20751,.FFMA,20733,20742,4,3,1,0,0,0,5,0,1,0,-1,2,32,0,0,-1,0x11b0,-1,-1,-1,0 
1,3,519,0,0,20760,.FFMA,20733,20751,4,3,1,0,0,0,5,0,1,0,-1,2,32,0,0,-1,0x11c0,-1,-1,-1,0 
1,3,520,0,0,20769,.FFMA,20751,20760,4,3,1,0,0,0,5,0,1,0,-1,2,32,0,0,-1,0x11d0,-1,-1,-1,0 
1,3,521,0,0,20778,.FFMA,20751,20769,4,3,1,0,0,0,5,0,1,0,-1,2,32,0,0,-1,0x11e0,-1,-1,-1,0 
1,3,522,0,0,20779,.IMAD.MOV.U32,20769,20770,4,2,1,0,0,0,6,0,3,0,-1,2,32,0,0,-1,0x11f0,-1,-1,-1,0 
1,3,523,0,0,20779,.RET.REL.NODEC,20769,20771,4,0,1,0,0,0,100,0,7,0,-1,4,32,0,0,-1,0x1200,-1,-1,-1,0 
1,3,524,0,0,20780,.BSYNC,20771,20772,4,0,0,0,0,0,100,0,7,0,-1,4,32,0,0,-1,0x9d0,-1,-1,-1,0 
1,3,525,0,0,20787,.FMUL,20771,20778,4,2,1,0,0,0,5,0,1,0,-1,2,32,0,0,-1,0x9e0,-1,-1,-1,0 
1,3,526,0,0,20788,.F2F.F64.F32,20778,20779,4,1,1,0,0,0,1,0,3,0,-1,2,32,0,0,-1,0x9f0,-1,-1,-1,0 
1,3,527,0,0,20789,.F2F.F64.F32,20778,20780,4,1,1,0,0,0,1,0,3,0,-1,2,32,0,0,-1,0xa00,-1,-1,-1,0 
1,3,528,0,0,20790,.IMAD.MOV.U32,20780,20781,4,2,1,0,0,0,6,0,3,0,-1,2,32,0,0,-1,0xa10,-1,-1,-1,0 
1,3,529,0,0,20790,.BMOV.32.CLEAR,20780,20782,4,0,1,0,0,0,100,0,7,0,-1,4,32,0,0,-1,0xa20,-1,-1,-1,0 
1,3,530,0,0,20799,.IMAD.MOV.U32,20782,20790,4,2,1,0,0,0,6,0,3,0,-1,2,32,0,0,-1,0xa30,-1,-1,-1,0 
1,3,531,0,0,20800,.F2F.F64.F32,20782,20791,4,1,1,0,0,0,1,0,3,0,-1,2,32,0,0,-1,0xa40,-1,-1,-1,0 
1,3,532,0,0,20800,.BSSY,20791,20792,4,0,0,0,0,0,100,0,7,0,-1,4,32,0,0,-1,0xa50,-1,-1,-1,0 
1,3,533,0,0,20806,.DFMA,20791,20793,8,2,1,0,0,0,4,0,2,0,-1,4,32,0,0,-1,0xa60,-1,-1,-1,0 
1,3,534,0,0,20813,.DMUL,20793,20800,8,1,1,0,0,0,4,0,2,0,-1,4,32,0,0,-1,0xa70,-1,-1,-1,0 
1,3,535,0,0,20815,.F2F.F32.F64,20793,20806,4,1,1,0,0,0,1,0,3,0,-1,2,32,0,0,-1,0xa80,-1,-1,-1,0 
1,3,537,0,0,20822,.MOV,20806,20814,4,0,1,0,0,0,1,0,3,0,-1,2,32,0,0,-1,0xaa0,-1,-1,-1,0 
1,3,536,0,0,20826,.DFMA,20806,20813,8,2,1,0,0,0,4,0,2,0,-1,4,32,0,0,-1,0xa90,-1,-1,-1,0 
1,3,538,0,0,20835,.F2F.F32.F64,20814,20826,4,1,1,0,0,0,1,0,3,0,-1,2,32,0,0,-1,0xab0,-1,-1,-1,0 
1,3,539,0,0,20836,.FMUL,20814,20827,4,2,1,0,0,0,5,0,1,0,-1,2,32,0,0,-1,0xac0,-1,-1,-1,0 
1,3,540,0,0,20836,.CALL.REL.NOINC,20827,20828,4,0,0,0,0,0,100,0,7,0,-1,4,32,0,0,-1,0xad0,-1,-1,-1,0 
1,3,541,0,0,20839,.SHFL.IDX,20827,20829,4,4,0,0,0,0,1,0,3,0,-1,2,0,0,0,-1,0x1130,-1,-1,-1,0 
1,3,542,0,0,20845,.FCHK,20829,20836,4,2,0,0,0,0,5,0,1,0,-1,2,32,0,0,-1,0x1140,-1,-1,-1,0 
1,3,543,0,0,20845,.BRA,20829,20837,4,0,0,0,0,0,100,0,7,0,-1,4,0,0,0,-1,0x1150,-1,-1,-1,0 
1,3,545,0,0,20848,.FADD.FTZ,20837,20839,4,2,1,0,0,0,5,0,1,0,-1,2,32,0,0,-1,0x1170,-1,-1,-1,0 
1,3,544,0,0,20863,.MUFU.RCP,20837,20838,20,1,1,0,0,0,2,0,4,0,-1,8,32,0,0,-1,0x1160,-1,-1,-1,0 
1,3,546,0,0,20872,.FFMA,20839,20863,4,2,1,0,0,0,5,0,1,0,-1,2,32,0,0,-1,0x1180,-1,-1,-1,0 
1,3,547,0,0,20881,.FFMA,20839,20872,4,3,1,0,0,0,5,0,1,0,-1,2,32,0,0,-1,0x1190,-1,-1,-1,0 
1,3,548,0,0,20890,.FFMA,20872,20881,4,3,1,0,0,0,5,0,1,0,-1,2,32,0,0,-1,0x11a0,-1,-1,-1,0 
1,3,549,0,0,20899,.FFMA,20872,20890,4,3,1,0,0,0,5,0,1,0,-1,2,32,0,0,-1,0x11b0,-1,-1,-1,0 
1,3,550,0,0,20908,.FFMA,20890,20899,4,3,1,0,0,0,5,0,1,0,-1,2,32,0,0,-1,0x11c0,-1,-1,-1,0 
1,3,551,0,0,20917,.FFMA,20890,20908,4,3,1,0,0,0,5,0,1,0,-1,2,32,0,0,-1,0x11d0,-1,-1,-1,0 
1,3,552,0,0,20926,.FFMA,20908,20917,4,3,1,0,0,0,5,0,1,0,-1,2,32,0,0,-1,0x11e0,-1,-1,-1,0 
1,3,553,0,0,20927,.IMAD.MOV.U32,20908,20918,4,2,1,0,0,0,6,0,3,0,-1,2,32,0,0,-1,0x11f0,-1,-1,-1,0 
1,3,554,0,0,20927,.RET.REL.NODEC,20918,20919,4,0,1,0,0,0,100,0,7,0,-1,4,32,0,0,-1,0x1200,-1,-1,-1,0 
1,3,555,0,0,20928,.BSYNC,20918,20920,4,0,0,0,0,0,100,0,7,0,-1,4,32,0,0,-1,0xae0,-1,-1,-1,0 
1,3,556,0,0,20930,.IMAD.MOV.U32,20920,20921,4,2,1,0,0,0,6,0,3,0,-1,2,32,0,0,-1,0xaf0,-1,-1,-1,0 
1,3,557,0,0,20930,.BMOV.32.CLEAR,20920,20922,4,0,1,0,0,0,100,0,7,0,-1,4,32,0,0,-1,0xb00,-1,-1,-1,0 
1,3,558,0,0,20931,.BSSY,20922,20923,4,0,0,0,0,0,100,0,7,0,-1,4,32,0,0,-1,0xb10,-1,-1,-1,0 
1,3,559,0,0,20935,.FADD,20922,20926,4,1,1,0,0,0,5,0,1,0,-1,2,32,0,0,-1,0xb20,-1,-1,-1,0 
1,3,560,0,0,20935,.MOV,20926,20927,4,0,1,0,0,0,1,0,3,0,-1,2,32,0,0,-1,0xb30,-1,-1,-1,0 
1,3,561,0,0,20939,.FADD,20926,20930,4,1,1,0,0,0,5,0,1,0,-1,2,32,0,0,-1,0xb40,-1,-1,-1,0 
1,3,562,0,0,20948,.FMUL,20930,20939,4,1,1,0,0,0,5,0,1,0,-1,2,32,0,0,-1,0xb50,-1,-1,-1,0 
1,3,563,0,0,20948,.CALL.REL.NOINC,20930,20940,4,0,0,0,0,0,100,0,7,0,-1,4,32,0,0,-1,0xb60,-1,-1,-1,0 
1,3,564,0,0,20951,.SHFL.IDX,20940,20941,4,4,0,0,0,0,1,0,3,0,-1,2,0,0,0,-1,0x1130,-1,-1,-1,0 
1,3,565,0,0,20957,.FCHK,20940,20948,4,2,0,0,0,0,5,0,1,0,-1,2,32,0,0,-1,0x1140,-1,-1,-1,0 
1,3,566,0,0,20957,.BRA,20948,20949,4,0,0,0,0,0,100,0,7,0,-1,4,0,0,0,-1,0x1150,-1,-1,-1,0 
1,3,568,0,0,20960,.FADD.FTZ,20950,20951,4,2,1,0,0,0,5,0,1,0,-1,2,32,0,0,-1,0x1170,-1,-1,-1,0 
1,3,567,0,0,20975,.MUFU.RCP,20948,20950,20,1,1,0,0,0,2,0,4,0,-1,8,32,0,0,-1,0x1160,-1,-1,-1,0 
1,3,569,0,0,20984,.FFMA,20950,20975,4,2,1,0,0,0,5,0,1,0,-1,2,32,0,0,-1,0x1180,-1,-1,-1,0 
1,3,570,0,0,20993,.FFMA,20975,20984,4,3,1,0,0,0,5,0,1,0,-1,2,32,0,0,-1,0x1190,-1,-1,-1,0 
1,3,571,0,0,21002,.FFMA,20975,20993,4,3,1,0,0,0,5,0,1,0,-1,2,32,0,0,-1,0x11a0,-1,-1,-1,0 
1,3,572,0,0,21011,.FFMA,20993,21002,4,3,1,0,0,0,5,0,1,0,-1,2,32,0,0,-1,0x11b0,-1,-1,-1,0 
1,3,573,0,0,21020,.FFMA,20993,21011,4,3,1,0,0,0,5,0,1,0,-1,2,32,0,0,-1,0x11c0,-1,-1,-1,0 
1,3,574,0,0,21029,.FFMA,21011,21020,4,3,1,0,0,0,5,0,1,0,-1,2,32,0,0,-1,0x11d0,-1,-1,-1,0 
1,3,575,0,0,21038,.FFMA,21011,21029,4,3,1,0,0,0,5,0,1,0,-1,2,32,0,0,-1,0x11e0,-1,-1,-1,0 
1,3,576,0,0,21039,.IMAD.MOV.U32,21029,21030,4,2,1,0,0,0,6,0,3,0,-1,2,32,0,0,-1,0x11f0,-1,-1,-1,0 
1,3,577,0,0,21039,.RET.REL.NODEC,21029,21031,4,0,1,0,0,0,100,0,7,0,-1,4,32,0,0,-1,0x1200,-1,-1,-1,0 
1,3,578,0,0,21040,.BSYNC,21031,21032,4,0,0,0,0,0,100,0,7,0,-1,4,32,0,0,-1,0xb70,-1,-1,-1,0 
1,3,579,0,0,21047,.F2F.F64.F32,21031,21038,4,1,1,0,0,0,1,0,3,0,-1,2,32,0,0,-1,0xb80,-1,-1,-1,0 
1,3,580,0,0,21047,.BMOV.32.CLEAR,21038,21039,4,0,1,0,0,0,100,0,7,0,-1,4,32,0,0,-1,0xb90,-1,-1,-1,0 
1,3,581,0,0,21048,.BSSY,21038,21040,4,0,0,0,0,0,100,0,7,0,-1,4,32,0,0,-1,0xba0,-1,-1,-1,0 
1,3,584,0,0,21058,.IADD3,21048,21049,4,2,1,0,0,0,6,0,3,0,-1,2,32,0,0,-1,0xbd0,-1,-1,-1,0 
1,3,582,0,0,21060,.DADD,21040,21047,8,1,1,0,0,0,4,0,2,0,-1,4,32,0,0,-1,0xbb0,-1,-1,-1,0 
1,3,585,0,0,21067,.FSETP.GEU.AND,21048,21058,4,1,0,0,0,0,5,0,1,0,-1,2,32,0,0,-1,0xbe0,-1,-1,-1,0 
1,3,583,0,0,21073,.MUFU.RCP64H,21040,21048,20,1,1,0,0,0,2,0,4,0,-1,8,32,0,0,-1,0xbc0,-1,-1,-1,0 
1,3,586,0,0,21073,.DFMA,21058,21060,8,2,1,0,0,0,4,0,2,0,-1,4,32,0,0,-1,0xbf0,-1,-1,-1,0 
1,3,587,0,0,21087,.DFMA,21058,21073,8,3,1,0,0,0,4,0,2,0,-1,4,32,0,0,-1,0xc00,-1,-1,-1,0 
1,3,588,0,0,21100,.DFMA,21073,21087,8,3,1,0,0,0,4,0,2,0,-1,4,32,0,0,-1,0xc10,-1,-1,-1,0 
1,3,589,0,0,21113,.DFMA,21073,21100,8,2,1,0,0,0,4,0,2,0,-1,4,32,0,0,-1,0xc20,-1,-1,-1,0 
1,3,591,0,0,21122,.BRA,21100,21114,4,0,0,0,0,0,100,0,7,0,-1,4,32,0,0,-1,0xc40,-1,-1,-1,0 
1,3,592,0,0,21123,.BSYNC,21114,21115,4,0,0,0,0,0,100,0,7,0,-1,4,32,0,0,-1,0xc90,-1,-1,-1,0 
1,3,590,0,0,21126,.DFMA,21100,21113,8,3,1,0,0,0,4,0,2,0,-1,4,32,0,0,-1,0xc30,-1,-1,-1,0 
1,3,593,0,0,21135,.F2F.F32.F64,21114,21126,4,1,1,0,0,0,1,0,3,0,-1,2,32,0,0,-1,0xca0,-1,-1,-1,0 
1,3,594,0,0,21135,.BMOV.32.CLEAR,21126,21127,4,0,1,0,0,0,100,0,7,0,-1,4,32,0,0,-1,0xcb0,-1,-1,-1,0 
1,3,595,0,0,21136,.BSSY,21126,21128,4,0,0,0,0,0,100,0,7,0,-1,4,32,0,0,-1,0xcc0,-1,-1,-1,0 
1,3,600,0,0,21143,.STS,21138,21139,1,2,0,0,1,4,11,0,6,0,-1,1,25,0,0,-1,0xd10,-1,-1,-1,0 
1,3,596,0,0,21144,.FSETP.GEU.AND,21128,21135,4,2,0,0,0,0,5,0,1,0,-1,2,32,0,0,-1,0xcd0,-1,-1,-1,0 
1,3,597,0,0,21144,.BRA,21128,21136,4,0,0,0,0,0,100,0,7,0,-1,4,0,0,0,-1,0xce0,-1,-1,-1,0 
1,3,598,0,0,21146,.FSETP.GT.AND,21136,21137,4,1,0,0,0,0,5,0,1,0,-1,2,32,0,0,-1,0xcf0,-1,-1,-1,0 
1,3,599,0,0,21146,.MOV,21136,21138,4,0,1,0,0,0,1,0,3,0,-1,2,7,0,0,-1,0xd00,-1,-1,-1,0 
1,3,601,0,0,21150,.STS,21138,21146,1,2,0,0,1,4,11,0,6,0,-1,1,7,0,0,-1,0xd20,-1,-1,-1,0 
1,3,602,0,0,21155,.BRA,21146,21147,4,0,0,0,0,0,100,0,7,0,-1,4,32,0,0,-1,0xd30,-1,-1,-1,0 
1,3,605,0,0,21155,.BAR.SYNC,21148,21150,1,0,0,0,0,0,13,0,3,0,-1,1,32,0,0,-1,0xd70,1,-1,-1,0 
1,3,603,0,0,21156,.BSYNC,21146,21148,4,0,0,0,0,0,100,0,7,0,-1,4,32,0,0,-1,0xd50,-1,-1,-1,0 
1,3,604,0,0,21157,.NOP,21148,21149,4,0,0,0,0,0,1,0,3,0,-1,2,32,0,0,-1,0xd60,-1,-1,-1,0 
1,3,607,0,0,21161,.IMAD.MOV.U32,21150,21152,4,2,1,0,0,0,6,0,3,0,-1,2,32,0,0,-1,0xd90,-1,-1,-1,0 
1,3,608,0,0,21170,.IMAD.WIDE,21152,21161,4,2,1,0,0,0,6,0,3,0,-1,2,32,0,0,-1,0xda0,-1,-1,-1,0 
1,3,609,0,0,21171,.IMAD.WIDE,21152,21162,4,2,1,0,0,0,6,0,3,0,-1,2,32,0,0,-1,0xdb0,-1,-1,-1,0 
1,3,610,0,0,21172,.IMAD.WIDE,21162,21163,4,2,1,0,0,0,6,0,3,0,-1,2,32,0,0,-1,0xdc0,-1,-1,-1,0 
1,3,611,0,0,21173,.IMAD.WIDE,21162,21164,4,2,1,0,0,0,6,0,3,0,-1,2,32,0,0,-1,0xdd0,-1,-1,-1,0 
1,3,612,0,0,21174,.IMAD.WIDE,21164,21165,4,2,1,0,0,0,6,0,3,0,-1,2,32,0,0,-1,0xde0,-1,-1,-1,0 
1,3,606,0,0,21175,.LDS.U,21150,21151,1,1,1,1,0,4,8,0,6,0,-1,1,32,0,0,-1,0xd80,-1,-1,-1,0 
1,3,613,0,0,21181,.STG.E.SYS,21164,21175,1,2,0,0,1,4,11,0,6,0,-1,1,32,0,0,-1,0xdf0,-1,-1,-1,1 
1,3,618,0,0,21185,.EXIT,21179,21180,1,0,0,0,0,0,17,0,3,0,-1,1,32,0,0,-1,0xe40,-1,-1,-1,0 
1,3,614,0,0,21185,.STG.E.SYS,21175,21176,1,2,0,0,1,4,11,0,6,0,-1,1,32,0,0,-1,0xe00,-1,-1,-1,1 
1,3,615,0,0,21189,.STG.E.SYS,21175,21177,1,2,0,0,1,4,11,0,6,0,-1,1,32,0,0,-1,0xe10,-1,-1,-1,1 
1,3,616,0,0,21193,.STG.E.SYS,21177,21178,1,2,0,0,1,4,11,0,6,0,-1,1,32,0,0,-1,0xe20,-1,-1,-1,1 
1,3,617,0,0,21197,.STG.E.SYS,21177,21179,1,2,0,0,1,4,11,0,6,0,-1,1,32,0,0,-1,0xe30,-1,-1,-1,1 
Destroy streams for kernel 3: size 0


gpgpu_simulation_time = 0 days, 0 hrs, 0 min, 1 sec (1 sec)
gpgpu_simulation_rate = 16833 (inst/sec)
gpgpu_simulation_rate = 21385 (cycle/sec)
gpgpu_silicon_slowdown = 52934x
-kernel name = _Z11srad_cuda_2PfS_S_S_S_S_iiff
-kernel id = 4
-grid dim = (8,8,1)
-block dim = (16,16,1)
-shmem = 5120
-nregs = 26
-binary version = 70
-cuda stream id = 0
-shmem base_addr = 0x00007fc75b000000
-local mem base_addr = 0x00007fc75d000000
-nvbit version = 1.4
-accelsim tracer version = 3
launching kernel command : /scratch/santosh/gpu_simulation/accel-sim-framework/traces/rodinia_2.0-ft/11.0/srad_v2-rodinia-2.0-ft/__data_matrix128x128_txt_0_127_0_127__5_2___data_result_matrix128x128_1_150_1_100__5_2_txt/traces/kernel-4.traceg
GPGPU-Sim uArch: Shader 0 bind to kernel 4 '_Z11srad_cuda_2PfS_S_S_S_S_iiff'
GPGPU-Sim: Reconfigure L1 cache to 120KB
GPGPUsim: cta_size: 32
ctaid: 0, start warp: 0, end_warp: 1, start_thread: 0, end_thread: 32
thread block = 0,0,0
warp id: 0
warp id: 1
warp_id: 0, insts: 96
1,4,619,0,0,26395,.MOV,26386,26387,4,0,1,0,0,0,1,0,3,0,-1,2,32,0,0,-1,0,-1,-1,-1,0 
1,4,621,0,0,26397,.S2R,26388,26389,4,0,1,0,0,0,1,0,3,0,-1,2,32,0,0,-1,0x20,-1,-1,-1,0 
1,4,620,0,0,26398,.SHFL.IDX,26386,26388,4,4,0,0,0,0,1,0,3,0,-1,2,0,0,0,-1,0x10,-1,-1,-1,0 
1,4,622,0,0,26399,.IMAD.MOV.U32,26388,26390,4,2,1,0,0,0,6,0,3,0,-1,2,32,0,0,-1,0x30,-1,-1,-1,0 
1,4,623,0,0,26399,.MOV,26390,26391,4,0,1,0,0,0,1,0,3,0,-1,2,32,0,0,-1,0x40,-1,-1,-1,0 
1,4,624,0,0,26400,.S2R,26390,26392,4,0,1,0,0,0,1,0,3,0,-1,2,32,0,0,-1,0x50,-1,-1,-1,0 
1,4,625,0,0,26408,.SHF.L.U32,26392,26399,4,2,1,0,0,0,6,0,3,0,-1,2,32,0,0,-1,0x60,-1,-1,-1,0 
1,4,626,0,0,26408,.S2R,26392,26400,4,0,1,0,0,0,1,0,3,0,-1,2,32,0,0,-1,0x70,-1,-1,-1,0 
1,4,627,0,0,26409,.S2R,26400,26401,4,0,1,0,0,0,1,0,3,0,-1,2,32,0,0,-1,0x80,-1,-1,-1,0 
1,4,628,0,0,26418,.IMAD,26400,26408,4,3,1,0,0,0,6,0,3,0,-1,2,32,0,0,-1,0x90,-1,-1,-1,0 
1,4,629,0,0,26427,.IMAD,26408,26418,4,2,1,0,0,0,6,0,3,0,-1,2,32,0,0,-1,0xa0,-1,-1,-1,0 
1,4,630,0,0,26436,.IMAD,26408,26427,4,2,1,0,0,0,6,0,3,0,-1,2,32,0,0,-1,0xb0,-1,-1,-1,0 
1,4,631,0,0,26445,.IMAD.IADD,26427,26436,4,2,1,0,0,0,6,0,3,0,-1,2,32,0,0,-1,0xc0,-1,-1,-1,0 
1,4,632,0,0,26454,.IMAD.WIDE,26427,26445,4,2,1,0,0,0,6,0,3,0,-1,2,32,0,0,-1,0xd0,-1,-1,-1,0 
1,4,634,0,0,26464,.IADD3,26445,26455,4,3,1,0,0,0,6,0,3,0,-1,2,32,0,0,-1,0xf0,-1,-1,-1,0 
1,4,635,0,0,26465,.SHF.L.U32,26455,26456,4,2,1,0,0,0,6,0,3,0,-1,2,32,0,0,-1,0x100,-1,-1,-1,0 
1,4,636,0,0,26473,.IMAD.WIDE,26455,26464,4,2,1,0,0,0,6,0,3,0,-1,2,32,0,0,-1,0x110,-1,-1,-1,0 
1,4,637,0,0,26474,.LEA,26464,26465,4,2,1,0,0,0,6,0,3,0,-1,2,32,0,0,-1,0x120,-1,-1,-1,0 
1,4,638,0,0,26475,.IMAD.MOV.U32,26464,26466,4,2,1,0,0,0,6,0,3,0,-1,2,32,0,0,-1,0x130,-1,-1,-1,0 
1,4,639,0,0,26484,.IADD3,26466,26475,4,2,1,0,0,0,6,0,3,0,-1,2,32,0,0,-1,0x140,-1,-1,-1,0 
1,4,640,0,0,26493,.ISETP.NE.AND,26466,26484,4,2,0,0,0,0,6,0,3,0,-1,2,32,0,0,-1,0x150,-1,-1,-1,0 
1,4,633,0,0,26649,.LDG.E.SYS,26445,26454,1,1,1,1,0,4,8,0,6,0,-1,1,32,0,0,-1,0xe0,-1,-1,-1,1 
1,4,641,0,0,26652,.STS,26484,26649,1,2,0,0,1,4,11,0,6,0,-1,1,32,0,0,-1,0x160,-1,-1,-1,0 
1,4,643,0,0,26656,.BAR.SYNC,26650,26651,1,0,0,0,0,0,13,0,3,0,-1,1,32,0,0,-1,0x180,1,-1,-1,0 
1,4,642,0,0,26658,.NOP,26484,26650,4,0,0,0,0,0,1,0,3,0,-1,2,32,0,0,-1,0x170,-1,-1,-1,0 
1,4,645,0,0,26662,.IMAD,26652,26653,4,2,1,0,0,0,6,0,3,0,-1,2,0,0,0,-1,0x1a0,-1,-1,-1,0 
1,4,646,0,0,26671,.IADD3,26652,26662,4,3,1,0,0,0,6,0,3,0,-1,2,0,0,0,-1,0x1b0,-1,-1,-1,0 
1,4,647,0,0,26680,.IMAD.WIDE.U32,26662,26671,4,2,1,0,0,0,6,0,3,0,-1,2,0,0,0,-1,0x1c0,-1,-1,-1,0 
1,4,644,0,0,26984,.LDG.E.SYS,26650,26652,1,1,1,1,0,4,8,0,6,0,-1,1,32,0,0,-1,0x190,-1,-1,-1,1 
1,4,648,0,0,26987,.LDG.E.SYS,26662,26984,1,1,1,1,0,4,8,0,6,0,-1,1,0,0,0,-1,0x1d0,-1,-1,-1,1 
1,4,649,0,0,26994,.IMAD.WIDE,26984,26985,4,2,1,0,0,0,6,0,3,0,-1,2,32,0,0,-1,0x1e0,-1,-1,-1,0 
1,4,650,0,0,26994,.MOV,26984,26986,4,0,1,0,0,0,1,0,3,0,-1,2,32,0,0,-1,0x1f0,-1,-1,-1,0 
1,4,651,0,0,27003,.IADD3,26986,26994,4,2,1,0,0,0,6,0,3,0,-1,2,32,0,0,-1,0x200,-1,-1,-1,0 
1,4,654,0,0,27008,.STS,27003,27005,1,2,0,0,1,4,11,0,6,0,-1,1,32,0,0,-1,0x230,-1,-1,-1,0 
1,4,652,0,0,27012,.ISETP.NE.AND,26986,27003,4,2,0,0,0,0,6,0,3,0,-1,2,32,0,0,-1,0x210,-1,-1,-1,0 
1,4,656,0,0,27012,.BAR.SYNC,27005,27007,1,0,0,0,0,0,13,0,3,0,-1,1,32,0,0,-1,0x250,1,-1,-1,0 
1,4,653,0,0,27013,.IMAD,27003,27004,4,2,1,0,0,0,6,0,3,0,-1,2,0,0,0,-1,0x220,-1,-1,-1,0 
1,4,655,0,0,27014,.NOP,27005,27006,4,0,0,0,0,0,1,0,3,0,-1,2,32,0,0,-1,0x240,-1,-1,-1,0 
1,4,658,0,0,27022,.IMAD,27007,27013,4,2,1,0,0,0,6,0,3,0,-1,2,0,0,0,-1,0x270,-1,-1,-1,0 
1,4,659,0,0,27031,.IADD3,27013,27022,4,2,1,0,0,0,6,0,3,0,-1,2,0,0,0,-1,0x280,-1,-1,-1,0 
1,4,660,0,0,27040,.IMAD.WIDE.U32,27013,27031,4,2,1,0,0,0,6,0,3,0,-1,2,0,0,0,-1,0x290,-1,-1,-1,0 
1,4,657,0,0,27339,.LDG.E.SYS,27007,27008,1,1,1,1,0,4,8,0,6,0,-1,1,32,0,0,-1,0x260,-1,-1,-1,1 
1,4,661,0,0,27342,.LDG.E.SYS,27031,27339,1,1,1,1,0,4,8,0,6,0,-1,1,0,0,0,-1,0x2a0,-1,-1,-1,1 
1,4,663,0,0,27345,.STS,27340,27342,1,2,0,0,1,4,11,0,6,0,-1,1,32,0,0,-1,0x2c0,-1,-1,-1,0 
1,4,662,0,0,27349,.IMAD.WIDE,27031,27340,4,2,1,0,0,0,6,0,3,0,-1,2,32,0,0,-1,0x2b0,-1,-1,-1,0 
1,4,665,0,0,27349,.BAR.SYNC,27343,27344,1,0,0,0,0,0,13,0,3,0,-1,1,32,0,0,-1,0x2e0,1,-1,-1,0 
1,4,664,0,0,27351,.NOP,27340,27343,4,0,0,0,0,0,1,0,3,0,-1,2,32,0,0,-1,0x2d0,-1,-1,-1,0 
1,4,667,0,0,27359,.ISETP.EQ.AND,27349,27350,4,1,0,0,0,0,6,0,3,0,-1,2,32,0,0,-1,0x300,-1,-1,-1,0 
1,4,668,0,0,27359,.BMOV.32.CLEAR,27349,27351,4,0,1,0,0,0,100,0,7,0,-1,4,32,0,0,-1,0x310,-1,-1,-1,0 
1,4,669,0,0,27361,.ISETP.NE.AND,27351,27352,4,1,0,0,0,0,6,0,3,0,-1,2,32,0,0,-1,0x320,-1,-1,-1,0 
1,4,670,0,0,27361,.BSSY,27351,27353,4,0,0,0,0,0,100,0,7,0,-1,4,32,0,0,-1,0x330,-1,-1,-1,0 
1,4,671,0,0,27363,.ISETP.NE.AND,27353,27354,4,1,0,0,0,0,6,0,3,0,-1,2,32,0,0,-1,0x340,-1,-1,-1,0 
1,4,672,0,0,27363,.MOV,27353,27355,4,0,1,0,0,0,1,0,3,0,-1,2,32,0,0,-1,0x350,-1,-1,-1,0 
1,4,673,0,0,27364,.MOV,27355,27356,4,0,1,0,0,0,1,0,3,0,-1,2,32,0,0,-1,0x360,-1,-1,-1,0 
1,4,666,0,0,27544,.LDG.E.SYS,27343,27349,1,1,1,1,0,4,8,0,6,0,-1,1,32,0,0,-1,0x2f0,-1,-1,-1,1 
1,4,674,0,0,27547,.STS,27355,27544,1,2,0,0,1,4,11,0,6,0,-1,1,32,0,0,-1,0x370,-1,-1,-1,0 
1,4,676,0,0,27551,.BAR.SYNC,27544,27546,1,0,0,0,0,0,13,0,3,0,-1,1,32,0,0,-1,0x390,1,-1,-1,0 
1,4,675,0,0,27553,.NOP,27544,27545,4,0,0,0,0,0,1,0,3,0,-1,2,32,0,0,-1,0x380,-1,-1,-1,0 
1,4,678,0,0,27556,.BRA,27546,27548,4,0,0,0,0,0,100,0,7,0,-1,4,2,0,0,-1,0x3b0,-1,-1,-1,0 
1,4,679,0,0,27557,.BRA,27548,27549,4,0,0,0,0,0,100,0,7,0,-1,4,2,0,0,-1,0x3c0,-1,-1,-1,0 
1,4,680,0,0,27559,.IADD3,27548,27550,4,2,1,0,0,0,6,0,3,0,-1,2,2,0,0,-1,0x410,-1,-1,-1,0 
1,4,681,0,0,27560,.IADD3,27550,27551,4,2,1,0,0,0,6,0,3,0,-1,2,2,0,0,-1,0x420,-1,-1,-1,0 
1,4,682,0,0,27560,.BSYNC,27550,27552,4,0,0,0,0,0,100,0,7,0,-1,4,2,0,0,-1,0x430,-1,-1,-1,0 
1,4,683,0,0,27568,.IADD3,27552,27559,4,2,1,0,0,0,6,0,3,0,-1,2,30,0,0,-1,0x3d0,-1,-1,-1,0 
1,4,684,0,0,27569,.IADD3,27552,27560,4,2,1,0,0,0,6,0,3,0,-1,2,30,0,0,-1,0x3e0,-1,-1,-1,0 
1,4,677,0,0,27571,.LDS.U,27546,27547,1,1,1,1,0,4,8,0,6,0,-1,1,32,0,0,-1,0x3a0,-1,-1,-1,0 
1,4,685,0,0,27577,.LEA,27560,27568,4,1,1,0,0,0,6,0,3,0,-1,2,0,0,0,-1,0x3f0,-1,-1,-1,0 
1,4,686,0,0,27577,.BRA,27560,27569,4,0,0,0,0,0,100,0,7,0,-1,4,30,0,0,-1,0x400,-1,-1,-1,0 
1,4,687,0,0,27578,.BSYNC,27569,27570,4,0,0,0,0,0,100,0,7,0,-1,4,30,0,0,-1,0x430,-1,-1,-1,0 
1,4,688,0,0,27580,.IMAD.WIDE,27569,27571,4,2,1,0,0,0,6,0,3,0,-1,2,32,0,0,-1,0x440,-1,-1,-1,0 
1,4,690,0,0,27587,.IMAD.WIDE,27571,27578,4,2,1,0,0,0,6,0,3,0,-1,2,32,0,0,-1,0x460,-1,-1,-1,0 
1,4,692,0,0,27589,.IMAD.WIDE,27578,27580,4,2,1,0,0,0,6,0,3,0,-1,2,32,0,0,-1,0x480,-1,-1,-1,0 
1,4,695,0,0,27592,.IMAD.WIDE,27582,27583,4,2,1,0,0,0,6,0,3,0,-1,2,32,0,0,-1,0x4b0,-1,-1,-1,0 
1,4,689,0,0,27601,.LDS.U,27571,27577,1,1,1,1,0,4,8,0,6,0,-1,1,32,0,0,-1,0x450,-1,-1,-1,0 
1,4,691,0,0,27604,.LDS.U,27578,27579,1,1,1,1,0,4,8,0,6,0,-1,1,32,0,0,-1,0x470,-1,-1,-1,0 
1,4,693,0,0,27605,.LDS.U,27580,27581,1,1,1,1,0,4,8,0,6,0,-1,1,32,0,0,-1,0x490,-1,-1,-1,0 
1,4,694,0,0,27777,.LDG.E.SYS,27580,27582,1,1,1,1,0,4,8,0,6,0,-1,1,32,0,0,-1,0x4a0,-1,-1,-1,1 
1,4,696,0,0,27782,.LDG.E.SYS,27582,27587,1,1,1,1,0,4,8,0,6,0,-1,1,32,0,0,-1,0x4c0,-1,-1,-1,1 
1,4,699,0,0,27786,.FMUL,27592,27777,4,2,1,0,0,0,5,0,1,0,-1,2,32,0,0,-1,0x4f0,-1,-1,-1,0 
1,4,700,0,0,27786,.F2F.F64.F32,27592,27778,4,0,1,0,0,0,1,0,3,0,-1,2,32,0,0,-1,0x500,-1,-1,-1,0 
1,4,697,0,0,27786,.LDG.E.SYS,27587,27589,1,1,1,1,0,4,8,0,6,0,-1,1,32,0,0,-1,0x4d0,-1,-1,-1,1 
1,4,698,0,0,27790,.LDG.E.SYS,27587,27592,1,1,1,1,0,4,8,0,6,0,-1,1,32,0,0,-1,0x4e0,-1,-1,-1,1 
1,4,701,0,0,27795,.FFMA,27778,27786,4,3,1,0,0,0,5,0,1,0,-1,2,32,0,0,-1,0x510,-1,-1,-1,0 
1,4,702,0,0,27796,.F2F.F64.F32,27778,27787,4,1,1,0,0,0,1,0,3,0,-1,2,32,0,0,-1,0x520,-1,-1,-1,0 
1,4,703,0,0,27804,.FFMA,27787,27795,4,3,1,0,0,0,5,0,1,0,-1,2,32,0,0,-1,0x530,-1,-1,-1,0 
1,4,704,0,0,27813,.FFMA,27787,27804,4,3,1,0,0,0,5,0,1,0,-1,2,32,0,0,-1,0x540,-1,-1,-1,0 
1,4,705,0,0,27822,.F2F.F64.F32,27804,27813,4,1,1,0,0,0,1,0,3,0,-1,2,32,0,0,-1,0x550,-1,-1,-1,0 
1,4,706,0,0,27827,.DMUL,27804,27814,8,1,1,0,0,0,4,0,2,0,-1,4,32,0,0,-1,0x560,-1,-1,-1,0 
1,4,707,0,0,27840,.DFMA,27814,27827,8,3,1,0,0,0,4,0,2,0,-1,4,32,0,0,-1,0x570,-1,-1,-1,0 
1,4,708,0,0,27849,.F2F.F32.F64,27814,27840,4,1,1,0,0,0,1,0,3,0,-1,2,32,0,0,-1,0x580,-1,-1,-1,0 
1,4,709,0,0,27852,.STS,27840,27849,1,2,0,0,1,4,11,0,6,0,-1,1,32,0,0,-1,0x590,-1,-1,-1,0 
1,4,711,0,0,27856,.BAR.SYNC,27850,27851,1,0,0,0,0,0,13,0,3,0,-1,1,32,0,0,-1,0x5b0,1,-1,-1,0 
1,4,710,0,0,27858,.NOP,27840,27850,4,0,0,0,0,0,1,0,3,0,-1,2,32,0,0,-1,0x5a0,-1,-1,-1,0 
1,4,712,0,0,27876,.LDS.U,27850,27852,1,1,1,1,0,4,8,0,6,0,-1,1,32,0,0,-1,0x5c0,-1,-1,-1,0 
1,4,714,0,0,27882,.EXIT,27852,27877,1,0,0,0,0,0,17,0,3,0,-1,1,32,0,0,-1,0x5e0,-1,-1,-1,0 
1,4,713,0,0,27882,.STG.E.SYS,27852,27876,1,2,0,0,1,4,11,0,6,0,-1,1,32,0,0,-1,0x5d0,-1,-1,-1,1 
Destroy streams for kernel 4: size 0


gpgpu_simulation_time = 0 days, 0 hrs, 0 min, 2 sec (2 sec)
gpgpu_simulation_rate = 9697 (inst/sec)
gpgpu_simulation_rate = 14035 (cycle/sec)
gpgpu_silicon_slowdown = 80655x
GPGPU-Sim: *** simulation thread exiting ***
GPGPU-Sim: *** exit detected ***
